
---------- Begin Simulation Statistics ----------
sim_seconds                                 16.511600                       # Number of seconds simulated
sim_ticks                                16511599541000                       # Number of ticks simulated
final_tick                               16511599541000                       # Number of ticks from beginning of simulation (restored from checkpoints and never reset)
sim_freq                                 1000000000000                       # Frequency of simulated ticks
host_inst_rate                                 678727                       # Simulator instruction rate (inst/s)
host_op_rate                                  1087397                       # Simulator op (including micro ops) rate (op/s)
host_tick_rate                            12025342145                       # Simulator tick rate (ticks/s)
host_mem_usage                                 670280                       # Number of bytes of host memory used
host_seconds                                  1373.07                       # Real time elapsed on the host
sim_insts                                   931937720                       # Number of instructions simulated
sim_ops                                    1493068678                       # Number of ops (including micro ops) simulated
system.voltage_domain.voltage                       1                       # Voltage in Volts
system.clk_domain.clock                          1000                       # Clock period in ticks
system.mem_ctrls.pwrStateResidencyTicks::UNDEFINED 16511599541000                       # Cumulative time (in ticks) in various power states
system.mem_ctrls.bytes_read::cpu.inst           47744                       # Number of bytes read from this memory
system.mem_ctrls.bytes_read::cpu.data         1182272                       # Number of bytes read from this memory
system.mem_ctrls.bytes_read::total            1230016                       # Number of bytes read from this memory
system.mem_ctrls.bytes_inst_read::cpu.inst        47744                       # Number of instructions bytes read from this memory
system.mem_ctrls.bytes_inst_read::total         47744                       # Number of instructions bytes read from this memory
system.mem_ctrls.bytes_written::writebacks   3606446400                       # Number of bytes written to this memory
system.mem_ctrls.bytes_written::total      3606446400                       # Number of bytes written to this memory
system.mem_ctrls.num_reads::cpu.inst              746                       # Number of read requests responded to by this memory
system.mem_ctrls.num_reads::cpu.data            18473                       # Number of read requests responded to by this memory
system.mem_ctrls.num_reads::total               19219                       # Number of read requests responded to by this memory
system.mem_ctrls.num_writes::writebacks      56350725                       # Number of write requests responded to by this memory
system.mem_ctrls.num_writes::total           56350725                       # Number of write requests responded to by this memory
system.mem_ctrls.bw_read::cpu.inst               2892                       # Total read bandwidth from this memory (bytes/s)
system.mem_ctrls.bw_read::cpu.data              71603                       # Total read bandwidth from this memory (bytes/s)
system.mem_ctrls.bw_read::total                 74494                       # Total read bandwidth from this memory (bytes/s)
system.mem_ctrls.bw_inst_read::cpu.inst          2892                       # Instruction read bandwidth from this memory (bytes/s)
system.mem_ctrls.bw_inst_read::total             2892                       # Instruction read bandwidth from this memory (bytes/s)
system.mem_ctrls.bw_write::writebacks       218418960                       # Write bandwidth from this memory (bytes/s)
system.mem_ctrls.bw_write::total            218418960                       # Write bandwidth from this memory (bytes/s)
system.mem_ctrls.bw_total::writebacks       218418960                       # Total bandwidth to/from this memory (bytes/s)
system.mem_ctrls.bw_total::cpu.inst              2892                       # Total bandwidth to/from this memory (bytes/s)
system.mem_ctrls.bw_total::cpu.data             71603                       # Total bandwidth to/from this memory (bytes/s)
system.mem_ctrls.bw_total::total            218493454                       # Total bandwidth to/from this memory (bytes/s)
system.pwrStateResidencyTicks::UNDEFINED 16511599541000                       # Cumulative time (in ticks) in various power states
system.cpu_voltage_domain.voltage                   1                       # Voltage in Volts
system.cpu_clk_domain.clock                       500                       # Clock period in ticks
system.cpu.dtb.walker.pwrStateResidencyTicks::UNDEFINED 16511599541000                       # Cumulative time (in ticks) in various power states
system.cpu.dtb.rdAccesses                   382884761                       # TLB accesses on read requests
system.cpu.dtb.wrAccesses                    56350725                       # TLB accesses on write requests
system.cpu.dtb.rdMisses                       7936484                       # TLB misses on read requests
system.cpu.dtb.wrMisses                           277                       # TLB misses on write requests
system.cpu.apic_clk_domain.clock                 8000                       # Clock period in ticks
system.cpu.interrupts.pwrStateResidencyTicks::UNDEFINED 16511599541000                       # Cumulative time (in ticks) in various power states
system.cpu.itb.walker.pwrStateResidencyTicks::UNDEFINED 16511599541000                       # Cumulative time (in ticks) in various power states
system.cpu.itb.rdAccesses                           0                       # TLB accesses on read requests
system.cpu.itb.wrAccesses                  1341649764                       # TLB accesses on write requests
system.cpu.itb.rdMisses                             0                       # TLB misses on read requests
system.cpu.itb.wrMisses                            78                       # TLB misses on write requests
system.cpu.workload.numSyscalls                    25                       # Number of system calls
system.cpu.pwrStateResidencyTicks::ON    16511599541000                       # Cumulative time (in ticks) in various power states
system.cpu.numCycles                      33023199082                       # number of cpu cycles simulated
system.cpu.numWorkItemsStarted                      0                       # number of work items this cpu started
system.cpu.numWorkItemsCompleted                    0                       # number of work items this cpu completed
system.cpu.committedInsts                   931937720                       # Number of instructions committed
system.cpu.committedOps                    1493068678                       # Number of ops (including micro ops) committed
system.cpu.num_int_alu_accesses            1492559911                       # Number of integer alu accesses
system.cpu.num_fp_alu_accesses                   4306                       # Number of float alu accesses
system.cpu.num_vec_alu_accesses                     0                       # Number of vector alu accesses
system.cpu.num_func_calls                     1081152                       # number of times a function call or return occured
system.cpu.num_conditional_control_insts     29585103                       # number of instructions that are conditional controls
system.cpu.num_int_insts                   1492559911                       # number of integer instructions
system.cpu.num_fp_insts                          4306                       # number of float instructions
system.cpu.num_vec_insts                            0                       # number of vector instructions
system.cpu.num_int_register_reads          2936287450                       # number of times the integer registers were read
system.cpu.num_int_register_writes         1546170562                       # number of times the integer registers were written
system.cpu.num_fp_register_reads                 6398                       # number of times the floating registers were read
system.cpu.num_fp_register_writes                3197                       # number of times the floating registers were written
system.cpu.num_vec_register_reads                   0                       # number of times the vector registers were read
system.cpu.num_vec_register_writes                  0                       # number of times the vector registers were written
system.cpu.num_cc_register_reads            159291943                       # number of times the CC registers were read
system.cpu.num_cc_register_writes           523370954                       # number of times the CC registers were written
system.cpu.num_mem_refs                     439235477                       # number of memory refs
system.cpu.num_load_insts                   382884752                       # Number of load instructions
system.cpu.num_store_insts                   56350725                       # Number of store instructions
system.cpu.num_idle_cycles                          0                       # Number of idle cycles
system.cpu.num_busy_cycles                33023199082                       # Number of busy cycles
system.cpu.not_idle_fraction                        1                       # Percentage of non-idle cycles
system.cpu.idle_fraction                            0                       # Percentage of idle cycles
system.cpu.Branches                          30937626                       # Number of branches fetched
system.cpu.op_class::No_OpClass                506519      0.03%      0.03% # Class of executed instruction
system.cpu.op_class::IntAlu                 915492095     61.32%     61.35% # Class of executed instruction
system.cpu.op_class::IntMult                135270015      9.06%     70.41% # Class of executed instruction
system.cpu.op_class::IntDiv                   2561987      0.17%     70.58% # Class of executed instruction
system.cpu.op_class::FloatAdd                     132      0.00%     70.58% # Class of executed instruction
system.cpu.op_class::FloatCmp                       0      0.00%     70.58% # Class of executed instruction
system.cpu.op_class::FloatCvt                       0      0.00%     70.58% # Class of executed instruction
system.cpu.op_class::FloatMult                      0      0.00%     70.58% # Class of executed instruction
system.cpu.op_class::FloatMultAcc                   0      0.00%     70.58% # Class of executed instruction
system.cpu.op_class::FloatDiv                       0      0.00%     70.58% # Class of executed instruction
system.cpu.op_class::FloatMisc                      0      0.00%     70.58% # Class of executed instruction
system.cpu.op_class::FloatSqrt                      0      0.00%     70.58% # Class of executed instruction
system.cpu.op_class::SimdAdd                      348      0.00%     70.58% # Class of executed instruction
system.cpu.op_class::SimdAddAcc                     0      0.00%     70.58% # Class of executed instruction
system.cpu.op_class::SimdAlu                      682      0.00%     70.58% # Class of executed instruction
system.cpu.op_class::SimdCmp                        0      0.00%     70.58% # Class of executed instruction
system.cpu.op_class::SimdCvt                      770      0.00%     70.58% # Class of executed instruction
system.cpu.op_class::SimdMisc                     524      0.00%     70.58% # Class of executed instruction
system.cpu.op_class::SimdMult                       0      0.00%     70.58% # Class of executed instruction
system.cpu.op_class::SimdMultAcc                    0      0.00%     70.58% # Class of executed instruction
system.cpu.op_class::SimdShift                    129      0.00%     70.58% # Class of executed instruction
system.cpu.op_class::SimdShiftAcc                   0      0.00%     70.58% # Class of executed instruction
system.cpu.op_class::SimdSqrt                       0      0.00%     70.58% # Class of executed instruction
system.cpu.op_class::SimdFloatAdd                   0      0.00%     70.58% # Class of executed instruction
system.cpu.op_class::SimdFloatAlu                   0      0.00%     70.58% # Class of executed instruction
system.cpu.op_class::SimdFloatCmp                   0      0.00%     70.58% # Class of executed instruction
system.cpu.op_class::SimdFloatCvt                   0      0.00%     70.58% # Class of executed instruction
system.cpu.op_class::SimdFloatDiv                   0      0.00%     70.58% # Class of executed instruction
system.cpu.op_class::SimdFloatMisc                  0      0.00%     70.58% # Class of executed instruction
system.cpu.op_class::SimdFloatMult                  0      0.00%     70.58% # Class of executed instruction
system.cpu.op_class::SimdFloatMultAcc               0      0.00%     70.58% # Class of executed instruction
system.cpu.op_class::SimdFloatSqrt                  0      0.00%     70.58% # Class of executed instruction
system.cpu.op_class::MemRead                382883780     25.64%     96.23% # Class of executed instruction
system.cpu.op_class::MemWrite                56350035      3.77%    100.00% # Class of executed instruction
system.cpu.op_class::FloatMemRead                 972      0.00%    100.00% # Class of executed instruction
system.cpu.op_class::FloatMemWrite                690      0.00%    100.00% # Class of executed instruction
system.cpu.op_class::IprAccess                      0      0.00%    100.00% # Class of executed instruction
system.cpu.op_class::InstPrefetch                   0      0.00%    100.00% # Class of executed instruction
system.cpu.op_class::total                 1493068678                       # Class of executed instruction
system.cpu.dcache.tags.pwrStateResidencyTicks::UNDEFINED 16511599541000                       # Cumulative time (in ticks) in various power states
system.cpu.dcache.tags.tagsinuse            63.999864                       # Cycle average of tags in use
system.cpu.dcache.tags.total_refs           439235486                       # Total number of references to valid blocks.
system.cpu.dcache.tags.sampled_refs          28881492                       # Sample count of references to valid blocks.
system.cpu.dcache.tags.avg_refs             15.208199                       # Average number of references to valid blocks.
system.cpu.dcache.tags.warmup_cycle            759000                       # Cycle when the warmup percentage was hit.
system.cpu.dcache.tags.occ_blocks::cpu.data    63.999864                       # Average occupied blocks per requestor
system.cpu.dcache.tags.occ_percent::cpu.data     0.999998                       # Average percentage of cache occupancy
system.cpu.dcache.tags.occ_percent::total     0.999998                       # Average percentage of cache occupancy
system.cpu.dcache.tags.occ_task_id_blocks::1024           64                       # Occupied blocks per task id
system.cpu.dcache.tags.age_task_id_blocks_1024::0           10                       # Occupied blocks per task id
system.cpu.dcache.tags.age_task_id_blocks_1024::1           54                       # Occupied blocks per task id
system.cpu.dcache.tags.occ_task_id_percent::1024            1                       # Percentage of cache occupancy per task id
system.cpu.dcache.tags.tag_accesses         907352464                       # Number of tag accesses
system.cpu.dcache.tags.data_accesses        907352464                       # Number of data accesses
system.cpu.dcache.pwrStateResidencyTicks::UNDEFINED 16511599541000                       # Cumulative time (in ticks) in various power states
system.cpu.dcache.ReadReq_hits::cpu.data    354075813                       # number of ReadReq hits
system.cpu.dcache.ReadReq_hits::total       354075813                       # number of ReadReq hits
system.cpu.dcache.WriteReq_hits::cpu.data           47                       # number of WriteReq hits
system.cpu.dcache.WriteReq_hits::total             47                       # number of WriteReq hits
system.cpu.dcache.demand_hits::cpu.data     354075860                       # number of demand (read+write) hits
system.cpu.dcache.demand_hits::total        354075860                       # number of demand (read+write) hits
system.cpu.dcache.overall_hits::cpu.data    354075860                       # number of overall hits
system.cpu.dcache.overall_hits::total       354075860                       # number of overall hits
system.cpu.dcache.ReadReq_misses::cpu.data     28808948                       # number of ReadReq misses
system.cpu.dcache.ReadReq_misses::total      28808948                       # number of ReadReq misses
system.cpu.dcache.WriteReq_misses::cpu.data     56350678                       # number of WriteReq misses
system.cpu.dcache.WriteReq_misses::total     56350678                       # number of WriteReq misses
system.cpu.dcache.demand_misses::cpu.data     85159626                       # number of demand (read+write) misses
system.cpu.dcache.demand_misses::total       85159626                       # number of demand (read+write) misses
system.cpu.dcache.overall_misses::cpu.data     85159626                       # number of overall misses
system.cpu.dcache.overall_misses::total      85159626                       # number of overall misses
system.cpu.dcache.ReadReq_miss_latency::cpu.data 979222079500                       # number of ReadReq miss cycles
system.cpu.dcache.ReadReq_miss_latency::total 979222079500                       # number of ReadReq miss cycles
system.cpu.dcache.WriteReq_miss_latency::cpu.data 13836268590000                       # number of WriteReq miss cycles
system.cpu.dcache.WriteReq_miss_latency::total 13836268590000                       # number of WriteReq miss cycles
system.cpu.dcache.demand_miss_latency::cpu.data 14815490669500                       # number of demand (read+write) miss cycles
system.cpu.dcache.demand_miss_latency::total 14815490669500                       # number of demand (read+write) miss cycles
system.cpu.dcache.overall_miss_latency::cpu.data 14815490669500                       # number of overall miss cycles
system.cpu.dcache.overall_miss_latency::total 14815490669500                       # number of overall miss cycles
system.cpu.dcache.ReadReq_accesses::cpu.data    382884761                       # number of ReadReq accesses(hits+misses)
system.cpu.dcache.ReadReq_accesses::total    382884761                       # number of ReadReq accesses(hits+misses)
system.cpu.dcache.WriteReq_accesses::cpu.data     56350725                       # number of WriteReq accesses(hits+misses)
system.cpu.dcache.WriteReq_accesses::total     56350725                       # number of WriteReq accesses(hits+misses)
system.cpu.dcache.demand_accesses::cpu.data    439235486                       # number of demand (read+write) accesses
system.cpu.dcache.demand_accesses::total    439235486                       # number of demand (read+write) accesses
system.cpu.dcache.overall_accesses::cpu.data    439235486                       # number of overall (read+write) accesses
system.cpu.dcache.overall_accesses::total    439235486                       # number of overall (read+write) accesses
system.cpu.dcache.ReadReq_miss_rate::cpu.data     0.075242                       # miss rate for ReadReq accesses
system.cpu.dcache.ReadReq_miss_rate::total     0.075242                       # miss rate for ReadReq accesses
system.cpu.dcache.WriteReq_miss_rate::cpu.data     0.999999                       # miss rate for WriteReq accesses
system.cpu.dcache.WriteReq_miss_rate::total     0.999999                       # miss rate for WriteReq accesses
system.cpu.dcache.demand_miss_rate::cpu.data     0.193881                       # miss rate for demand accesses
system.cpu.dcache.demand_miss_rate::total     0.193881                       # miss rate for demand accesses
system.cpu.dcache.overall_miss_rate::cpu.data     0.193881                       # miss rate for overall accesses
system.cpu.dcache.overall_miss_rate::total     0.193881                       # miss rate for overall accesses
system.cpu.dcache.ReadReq_avg_miss_latency::cpu.data 33990.206081                       # average ReadReq miss latency
system.cpu.dcache.ReadReq_avg_miss_latency::total 33990.206081                       # average ReadReq miss latency
system.cpu.dcache.WriteReq_avg_miss_latency::cpu.data 245538.635578                       # average WriteReq miss latency
system.cpu.dcache.WriteReq_avg_miss_latency::total 245538.635578                       # average WriteReq miss latency
system.cpu.dcache.demand_avg_miss_latency::cpu.data 173973.176790                       # average overall miss latency
system.cpu.dcache.demand_avg_miss_latency::total 173973.176790                       # average overall miss latency
system.cpu.dcache.overall_avg_miss_latency::cpu.data 173973.176790                       # average overall miss latency
system.cpu.dcache.overall_avg_miss_latency::total 173973.176790                       # average overall miss latency
system.cpu.dcache.blocked_cycles::no_mshrs            0                       # number of cycles access was blocked
system.cpu.dcache.blocked_cycles::no_targets            0                       # number of cycles access was blocked
system.cpu.dcache.blocked::no_mshrs                 0                       # number of cycles access was blocked
system.cpu.dcache.blocked::no_targets               0                       # number of cycles access was blocked
system.cpu.dcache.avg_blocked_cycles::no_mshrs          nan                       # average number of cycles each access was blocked
system.cpu.dcache.avg_blocked_cycles::no_targets          nan                       # average number of cycles each access was blocked
system.cpu.dcache.writebacks::writebacks     56350725                       # number of writebacks
system.cpu.dcache.writebacks::total          56350725                       # number of writebacks
system.cpu.dcache.ReadReq_mshr_misses::cpu.data     28808948                       # number of ReadReq MSHR misses
system.cpu.dcache.ReadReq_mshr_misses::total     28808948                       # number of ReadReq MSHR misses
system.cpu.dcache.WriteReq_mshr_misses::cpu.data     56350678                       # number of WriteReq MSHR misses
system.cpu.dcache.WriteReq_mshr_misses::total     56350678                       # number of WriteReq MSHR misses
system.cpu.dcache.demand_mshr_misses::cpu.data     85159626                       # number of demand (read+write) MSHR misses
system.cpu.dcache.demand_mshr_misses::total     85159626                       # number of demand (read+write) MSHR misses
system.cpu.dcache.overall_mshr_misses::cpu.data     85159626                       # number of overall MSHR misses
system.cpu.dcache.overall_mshr_misses::total     85159626                       # number of overall MSHR misses
system.cpu.dcache.ReadReq_mshr_miss_latency::cpu.data 950413131500                       # number of ReadReq MSHR miss cycles
system.cpu.dcache.ReadReq_mshr_miss_latency::total 950413131500                       # number of ReadReq MSHR miss cycles
system.cpu.dcache.WriteReq_mshr_miss_latency::cpu.data 13779917912000                       # number of WriteReq MSHR miss cycles
system.cpu.dcache.WriteReq_mshr_miss_latency::total 13779917912000                       # number of WriteReq MSHR miss cycles
system.cpu.dcache.demand_mshr_miss_latency::cpu.data 14730331043500                       # number of demand (read+write) MSHR miss cycles
system.cpu.dcache.demand_mshr_miss_latency::total 14730331043500                       # number of demand (read+write) MSHR miss cycles
system.cpu.dcache.overall_mshr_miss_latency::cpu.data 14730331043500                       # number of overall MSHR miss cycles
system.cpu.dcache.overall_mshr_miss_latency::total 14730331043500                       # number of overall MSHR miss cycles
system.cpu.dcache.ReadReq_mshr_miss_rate::cpu.data     0.075242                       # mshr miss rate for ReadReq accesses
system.cpu.dcache.ReadReq_mshr_miss_rate::total     0.075242                       # mshr miss rate for ReadReq accesses
system.cpu.dcache.WriteReq_mshr_miss_rate::cpu.data     0.999999                       # mshr miss rate for WriteReq accesses
system.cpu.dcache.WriteReq_mshr_miss_rate::total     0.999999                       # mshr miss rate for WriteReq accesses
system.cpu.dcache.demand_mshr_miss_rate::cpu.data     0.193881                       # mshr miss rate for demand accesses
system.cpu.dcache.demand_mshr_miss_rate::total     0.193881                       # mshr miss rate for demand accesses
system.cpu.dcache.overall_mshr_miss_rate::cpu.data     0.193881                       # mshr miss rate for overall accesses
system.cpu.dcache.overall_mshr_miss_rate::total     0.193881                       # mshr miss rate for overall accesses
system.cpu.dcache.ReadReq_avg_mshr_miss_latency::cpu.data 32990.206081                       # average ReadReq mshr miss latency
system.cpu.dcache.ReadReq_avg_mshr_miss_latency::total 32990.206081                       # average ReadReq mshr miss latency
system.cpu.dcache.WriteReq_avg_mshr_miss_latency::cpu.data 244538.635578                       # average WriteReq mshr miss latency
system.cpu.dcache.WriteReq_avg_mshr_miss_latency::total 244538.635578                       # average WriteReq mshr miss latency
system.cpu.dcache.demand_avg_mshr_miss_latency::cpu.data 172973.176790                       # average overall mshr miss latency
system.cpu.dcache.demand_avg_mshr_miss_latency::total 172973.176790                       # average overall mshr miss latency
system.cpu.dcache.overall_avg_mshr_miss_latency::cpu.data 172973.176790                       # average overall mshr miss latency
system.cpu.dcache.overall_avg_mshr_miss_latency::total 172973.176790                       # average overall mshr miss latency
system.cpu.dcache.replacements               28881428                       # number of replacements
system.cpu.dtb_walker_cache.tags.pwrStateResidencyTicks::UNDEFINED 16511599541000                       # Cumulative time (in ticks) in various power states
system.cpu.dtb_walker_cache.tags.tagsinuse            0                       # Cycle average of tags in use
system.cpu.dtb_walker_cache.tags.total_refs            0                       # Total number of references to valid blocks.
system.cpu.dtb_walker_cache.tags.sampled_refs            0                       # Sample count of references to valid blocks.
system.cpu.dtb_walker_cache.tags.avg_refs          nan                       # Average number of references to valid blocks.
system.cpu.dtb_walker_cache.tags.warmup_cycle            0                       # Cycle when the warmup percentage was hit.
system.cpu.dtb_walker_cache.tags.tag_accesses            0                       # Number of tag accesses
system.cpu.dtb_walker_cache.tags.data_accesses            0                       # Number of data accesses
system.cpu.dtb_walker_cache.pwrStateResidencyTicks::UNDEFINED 16511599541000                       # Cumulative time (in ticks) in various power states
system.cpu.dtb_walker_cache.blocked_cycles::no_mshrs            0                       # number of cycles access was blocked
system.cpu.dtb_walker_cache.blocked_cycles::no_targets            0                       # number of cycles access was blocked
system.cpu.dtb_walker_cache.blocked::no_mshrs            0                       # number of cycles access was blocked
system.cpu.dtb_walker_cache.blocked::no_targets            0                       # number of cycles access was blocked
system.cpu.dtb_walker_cache.avg_blocked_cycles::no_mshrs          nan                       # average number of cycles each access was blocked
system.cpu.dtb_walker_cache.avg_blocked_cycles::no_targets          nan                       # average number of cycles each access was blocked
system.cpu.dtb_walker_cache.replacements            0                       # number of replacements
system.cpu.icache.tags.pwrStateResidencyTicks::UNDEFINED 16511599541000                       # Cumulative time (in ticks) in various power states
system.cpu.icache.tags.tagsinuse            63.999725                       # Cycle average of tags in use
system.cpu.icache.tags.total_refs          1341649764                       # Total number of references to valid blocks.
system.cpu.icache.tags.sampled_refs              1693                       # Sample count of references to valid blocks.
system.cpu.icache.tags.avg_refs          792468.850561                       # Average number of references to valid blocks.
system.cpu.icache.tags.warmup_cycle            439000                       # Cycle when the warmup percentage was hit.
system.cpu.icache.tags.occ_blocks::cpu.inst    63.999725                       # Average occupied blocks per requestor
system.cpu.icache.tags.occ_percent::cpu.inst     0.999996                       # Average percentage of cache occupancy
system.cpu.icache.tags.occ_percent::total     0.999996                       # Average percentage of cache occupancy
system.cpu.icache.tags.occ_task_id_blocks::1024           64                       # Occupied blocks per task id
system.cpu.icache.tags.age_task_id_blocks_1024::0           15                       # Occupied blocks per task id
system.cpu.icache.tags.age_task_id_blocks_1024::1           39                       # Occupied blocks per task id
system.cpu.icache.tags.age_task_id_blocks_1024::4           10                       # Occupied blocks per task id
system.cpu.icache.tags.occ_task_id_percent::1024            1                       # Percentage of cache occupancy per task id
system.cpu.icache.tags.tag_accesses        2683301221                       # Number of tag accesses
system.cpu.icache.tags.data_accesses       2683301221                       # Number of data accesses
system.cpu.icache.pwrStateResidencyTicks::UNDEFINED 16511599541000                       # Cumulative time (in ticks) in various power states
system.cpu.icache.ReadReq_hits::cpu.inst   1341648071                       # number of ReadReq hits
system.cpu.icache.ReadReq_hits::total      1341648071                       # number of ReadReq hits
system.cpu.icache.demand_hits::cpu.inst    1341648071                       # number of demand (read+write) hits
system.cpu.icache.demand_hits::total       1341648071                       # number of demand (read+write) hits
system.cpu.icache.overall_hits::cpu.inst   1341648071                       # number of overall hits
system.cpu.icache.overall_hits::total      1341648071                       # number of overall hits
system.cpu.icache.ReadReq_misses::cpu.inst         1693                       # number of ReadReq misses
system.cpu.icache.ReadReq_misses::total          1693                       # number of ReadReq misses
system.cpu.icache.demand_misses::cpu.inst         1693                       # number of demand (read+write) misses
system.cpu.icache.demand_misses::total           1693                       # number of demand (read+write) misses
system.cpu.icache.overall_misses::cpu.inst         1693                       # number of overall misses
system.cpu.icache.overall_misses::total          1693                       # number of overall misses
system.cpu.icache.ReadReq_miss_latency::cpu.inst    385348500                       # number of ReadReq miss cycles
system.cpu.icache.ReadReq_miss_latency::total    385348500                       # number of ReadReq miss cycles
system.cpu.icache.demand_miss_latency::cpu.inst    385348500                       # number of demand (read+write) miss cycles
system.cpu.icache.demand_miss_latency::total    385348500                       # number of demand (read+write) miss cycles
system.cpu.icache.overall_miss_latency::cpu.inst    385348500                       # number of overall miss cycles
system.cpu.icache.overall_miss_latency::total    385348500                       # number of overall miss cycles
system.cpu.icache.ReadReq_accesses::cpu.inst   1341649764                       # number of ReadReq accesses(hits+misses)
system.cpu.icache.ReadReq_accesses::total   1341649764                       # number of ReadReq accesses(hits+misses)
system.cpu.icache.demand_accesses::cpu.inst   1341649764                       # number of demand (read+write) accesses
system.cpu.icache.demand_accesses::total   1341649764                       # number of demand (read+write) accesses
system.cpu.icache.overall_accesses::cpu.inst   1341649764                       # number of overall (read+write) accesses
system.cpu.icache.overall_accesses::total   1341649764                       # number of overall (read+write) accesses
system.cpu.icache.ReadReq_miss_rate::cpu.inst     0.000001                       # miss rate for ReadReq accesses
system.cpu.icache.ReadReq_miss_rate::total     0.000001                       # miss rate for ReadReq accesses
system.cpu.icache.demand_miss_rate::cpu.inst     0.000001                       # miss rate for demand accesses
system.cpu.icache.demand_miss_rate::total     0.000001                       # miss rate for demand accesses
system.cpu.icache.overall_miss_rate::cpu.inst     0.000001                       # miss rate for overall accesses
system.cpu.icache.overall_miss_rate::total     0.000001                       # miss rate for overall accesses
system.cpu.icache.ReadReq_avg_miss_latency::cpu.inst 227612.817484                       # average ReadReq miss latency
system.cpu.icache.ReadReq_avg_miss_latency::total 227612.817484                       # average ReadReq miss latency
system.cpu.icache.demand_avg_miss_latency::cpu.inst 227612.817484                       # average overall miss latency
system.cpu.icache.demand_avg_miss_latency::total 227612.817484                       # average overall miss latency
system.cpu.icache.overall_avg_miss_latency::cpu.inst 227612.817484                       # average overall miss latency
system.cpu.icache.overall_avg_miss_latency::total 227612.817484                       # average overall miss latency
system.cpu.icache.blocked_cycles::no_mshrs            0                       # number of cycles access was blocked
system.cpu.icache.blocked_cycles::no_targets            0                       # number of cycles access was blocked
system.cpu.icache.blocked::no_mshrs                 0                       # number of cycles access was blocked
system.cpu.icache.blocked::no_targets               0                       # number of cycles access was blocked
system.cpu.icache.avg_blocked_cycles::no_mshrs          nan                       # average number of cycles each access was blocked
system.cpu.icache.avg_blocked_cycles::no_targets          nan                       # average number of cycles each access was blocked
system.cpu.icache.writebacks::writebacks         1629                       # number of writebacks
system.cpu.icache.writebacks::total              1629                       # number of writebacks
system.cpu.icache.ReadReq_mshr_misses::cpu.inst         1693                       # number of ReadReq MSHR misses
system.cpu.icache.ReadReq_mshr_misses::total         1693                       # number of ReadReq MSHR misses
system.cpu.icache.demand_mshr_misses::cpu.inst         1693                       # number of demand (read+write) MSHR misses
system.cpu.icache.demand_mshr_misses::total         1693                       # number of demand (read+write) MSHR misses
system.cpu.icache.overall_mshr_misses::cpu.inst         1693                       # number of overall MSHR misses
system.cpu.icache.overall_mshr_misses::total         1693                       # number of overall MSHR misses
system.cpu.icache.ReadReq_mshr_miss_latency::cpu.inst    383655500                       # number of ReadReq MSHR miss cycles
system.cpu.icache.ReadReq_mshr_miss_latency::total    383655500                       # number of ReadReq MSHR miss cycles
system.cpu.icache.demand_mshr_miss_latency::cpu.inst    383655500                       # number of demand (read+write) MSHR miss cycles
system.cpu.icache.demand_mshr_miss_latency::total    383655500                       # number of demand (read+write) MSHR miss cycles
system.cpu.icache.overall_mshr_miss_latency::cpu.inst    383655500                       # number of overall MSHR miss cycles
system.cpu.icache.overall_mshr_miss_latency::total    383655500                       # number of overall MSHR miss cycles
system.cpu.icache.ReadReq_mshr_miss_rate::cpu.inst     0.000001                       # mshr miss rate for ReadReq accesses
system.cpu.icache.ReadReq_mshr_miss_rate::total     0.000001                       # mshr miss rate for ReadReq accesses
system.cpu.icache.demand_mshr_miss_rate::cpu.inst     0.000001                       # mshr miss rate for demand accesses
system.cpu.icache.demand_mshr_miss_rate::total     0.000001                       # mshr miss rate for demand accesses
system.cpu.icache.overall_mshr_miss_rate::cpu.inst     0.000001                       # mshr miss rate for overall accesses
system.cpu.icache.overall_mshr_miss_rate::total     0.000001                       # mshr miss rate for overall accesses
system.cpu.icache.ReadReq_avg_mshr_miss_latency::cpu.inst 226612.817484                       # average ReadReq mshr miss latency
system.cpu.icache.ReadReq_avg_mshr_miss_latency::total 226612.817484                       # average ReadReq mshr miss latency
system.cpu.icache.demand_avg_mshr_miss_latency::cpu.inst 226612.817484                       # average overall mshr miss latency
system.cpu.icache.demand_avg_mshr_miss_latency::total 226612.817484                       # average overall mshr miss latency
system.cpu.icache.overall_avg_mshr_miss_latency::cpu.inst 226612.817484                       # average overall mshr miss latency
system.cpu.icache.overall_avg_mshr_miss_latency::total 226612.817484                       # average overall mshr miss latency
system.cpu.icache.replacements                   1629                       # number of replacements
system.cpu.itb_walker_cache.tags.pwrStateResidencyTicks::UNDEFINED 16511599541000                       # Cumulative time (in ticks) in various power states
system.cpu.itb_walker_cache.tags.tagsinuse            0                       # Cycle average of tags in use
system.cpu.itb_walker_cache.tags.total_refs            0                       # Total number of references to valid blocks.
system.cpu.itb_walker_cache.tags.sampled_refs            0                       # Sample count of references to valid blocks.
system.cpu.itb_walker_cache.tags.avg_refs          nan                       # Average number of references to valid blocks.
system.cpu.itb_walker_cache.tags.warmup_cycle            0                       # Cycle when the warmup percentage was hit.
system.cpu.itb_walker_cache.tags.tag_accesses            0                       # Number of tag accesses
system.cpu.itb_walker_cache.tags.data_accesses            0                       # Number of data accesses
system.cpu.itb_walker_cache.pwrStateResidencyTicks::UNDEFINED 16511599541000                       # Cumulative time (in ticks) in various power states
system.cpu.itb_walker_cache.blocked_cycles::no_mshrs            0                       # number of cycles access was blocked
system.cpu.itb_walker_cache.blocked_cycles::no_targets            0                       # number of cycles access was blocked
system.cpu.itb_walker_cache.blocked::no_mshrs            0                       # number of cycles access was blocked
system.cpu.itb_walker_cache.blocked::no_targets            0                       # number of cycles access was blocked
system.cpu.itb_walker_cache.avg_blocked_cycles::no_mshrs          nan                       # average number of cycles each access was blocked
system.cpu.itb_walker_cache.avg_blocked_cycles::no_targets          nan                       # average number of cycles each access was blocked
system.cpu.itb_walker_cache.replacements            0                       # number of replacements
system.l2.tags.pwrStateResidencyTicks::UNDEFINED 16511599541000                       # Cumulative time (in ticks) in various power states
system.l2.tags.tagsinuse                   255.998647                       # Cycle average of tags in use
system.l2.tags.total_refs                   170394881                       # Total number of references to valid blocks.
system.l2.tags.sampled_refs                  28774624                       # Sample count of references to valid blocks.
system.l2.tags.avg_refs                      5.921707                       # Average number of references to valid blocks.
system.l2.tags.warmup_cycle                    428500                       # Cycle when the warmup percentage was hit.
system.l2.tags.occ_blocks::writebacks        0.031222                       # Average occupied blocks per requestor
system.l2.tags.occ_blocks::cpu.inst          0.059786                       # Average occupied blocks per requestor
system.l2.tags.occ_blocks::cpu.data        255.907639                       # Average occupied blocks per requestor
system.l2.tags.occ_percent::writebacks       0.000122                       # Average percentage of cache occupancy
system.l2.tags.occ_percent::cpu.inst         0.000234                       # Average percentage of cache occupancy
system.l2.tags.occ_percent::cpu.data         0.999639                       # Average percentage of cache occupancy
system.l2.tags.occ_percent::total            0.999995                       # Average percentage of cache occupancy
system.l2.tags.occ_task_id_blocks::1024           256                       # Occupied blocks per task id
system.l2.tags.age_task_id_blocks_1024::0           34                       # Occupied blocks per task id
system.l2.tags.age_task_id_blocks_1024::1          190                       # Occupied blocks per task id
system.l2.tags.age_task_id_blocks_1024::2           30                       # Occupied blocks per task id
system.l2.tags.age_task_id_blocks_1024::3            1                       # Occupied blocks per task id
system.l2.tags.age_task_id_blocks_1024::4            1                       # Occupied blocks per task id
system.l2.tags.occ_task_id_percent::1024            1                       # Percentage of cache occupancy per task id
system.l2.tags.tag_accesses                1391935432                       # Number of tag accesses
system.l2.tags.data_accesses               1391935432                       # Number of data accesses
system.l2.pwrStateResidencyTicks::UNDEFINED 16511599541000                       # Cumulative time (in ticks) in various power states
system.l2.WritebackClean_hits::writebacks         1629                       # number of WritebackClean hits
system.l2.WritebackClean_hits::total             1629                       # number of WritebackClean hits
system.l2.WriteClean_hits::writebacks        56350725                       # number of WriteClean hits
system.l2.WriteClean_hits::total             56350725                       # number of WriteClean hits
system.l2.ReadExReq_hits::cpu.data                  1                       # number of ReadExReq hits
system.l2.ReadExReq_hits::total                     1                       # number of ReadExReq hits
system.l2.ReadCleanReq_hits::cpu.inst             820                       # number of ReadCleanReq hits
system.l2.ReadCleanReq_hits::total                820                       # number of ReadCleanReq hits
system.l2.ReadSharedReq_hits::cpu.data          52977                       # number of ReadSharedReq hits
system.l2.ReadSharedReq_hits::total             52977                       # number of ReadSharedReq hits
system.l2.demand_hits::cpu.inst                   820                       # number of demand (read+write) hits
system.l2.demand_hits::cpu.data                 52978                       # number of demand (read+write) hits
system.l2.demand_hits::total                    53798                       # number of demand (read+write) hits
system.l2.overall_hits::cpu.inst                  820                       # number of overall hits
system.l2.overall_hits::cpu.data                52978                       # number of overall hits
system.l2.overall_hits::total                   53798                       # number of overall hits
system.l2.UpgradeReq_misses::cpu.data        56278134                       # number of UpgradeReq misses
system.l2.UpgradeReq_misses::total           56278134                       # number of UpgradeReq misses
system.l2.ReadExReq_misses::cpu.data            72543                       # number of ReadExReq misses
system.l2.ReadExReq_misses::total               72543                       # number of ReadExReq misses
system.l2.ReadCleanReq_misses::cpu.inst           873                       # number of ReadCleanReq misses
system.l2.ReadCleanReq_misses::total              873                       # number of ReadCleanReq misses
system.l2.ReadSharedReq_misses::cpu.data     28755971                       # number of ReadSharedReq misses
system.l2.ReadSharedReq_misses::total        28755971                       # number of ReadSharedReq misses
system.l2.demand_misses::cpu.inst                 873                       # number of demand (read+write) misses
system.l2.demand_misses::cpu.data            28828514                       # number of demand (read+write) misses
system.l2.demand_misses::total               28829387                       # number of demand (read+write) misses
system.l2.overall_misses::cpu.inst                873                       # number of overall misses
system.l2.overall_misses::cpu.data           28828514                       # number of overall misses
system.l2.overall_misses::total              28829387                       # number of overall misses
system.l2.UpgradeReq_miss_latency::cpu.data 13665758432000                       # number of UpgradeReq miss cycles
system.l2.UpgradeReq_miss_latency::total 13665758432000                       # number of UpgradeReq miss cycles
system.l2.ReadExReq_miss_latency::cpu.data  29632677500                       # number of ReadExReq miss cycles
system.l2.ReadExReq_miss_latency::total   29632677500                       # number of ReadExReq miss cycles
system.l2.ReadCleanReq_miss_latency::cpu.inst    372343500                       # number of ReadCleanReq miss cycles
system.l2.ReadCleanReq_miss_latency::total    372343500                       # number of ReadCleanReq miss cycles
system.l2.ReadSharedReq_miss_latency::cpu.data 906643411000                       # number of ReadSharedReq miss cycles
system.l2.ReadSharedReq_miss_latency::total 906643411000                       # number of ReadSharedReq miss cycles
system.l2.demand_miss_latency::cpu.inst     372343500                       # number of demand (read+write) miss cycles
system.l2.demand_miss_latency::cpu.data  936276088500                       # number of demand (read+write) miss cycles
system.l2.demand_miss_latency::total     936648432000                       # number of demand (read+write) miss cycles
system.l2.overall_miss_latency::cpu.inst    372343500                       # number of overall miss cycles
system.l2.overall_miss_latency::cpu.data 936276088500                       # number of overall miss cycles
system.l2.overall_miss_latency::total    936648432000                       # number of overall miss cycles
system.l2.WritebackClean_accesses::writebacks         1629                       # number of WritebackClean accesses(hits+misses)
system.l2.WritebackClean_accesses::total         1629                       # number of WritebackClean accesses(hits+misses)
system.l2.WriteClean_accesses::writebacks     56350725                       # number of WriteClean accesses(hits+misses)
system.l2.WriteClean_accesses::total         56350725                       # number of WriteClean accesses(hits+misses)
system.l2.UpgradeReq_accesses::cpu.data      56278134                       # number of UpgradeReq accesses(hits+misses)
system.l2.UpgradeReq_accesses::total         56278134                       # number of UpgradeReq accesses(hits+misses)
system.l2.ReadExReq_accesses::cpu.data          72544                       # number of ReadExReq accesses(hits+misses)
system.l2.ReadExReq_accesses::total             72544                       # number of ReadExReq accesses(hits+misses)
system.l2.ReadCleanReq_accesses::cpu.inst         1693                       # number of ReadCleanReq accesses(hits+misses)
system.l2.ReadCleanReq_accesses::total           1693                       # number of ReadCleanReq accesses(hits+misses)
system.l2.ReadSharedReq_accesses::cpu.data     28808948                       # number of ReadSharedReq accesses(hits+misses)
system.l2.ReadSharedReq_accesses::total      28808948                       # number of ReadSharedReq accesses(hits+misses)
system.l2.demand_accesses::cpu.inst              1693                       # number of demand (read+write) accesses
system.l2.demand_accesses::cpu.data          28881492                       # number of demand (read+write) accesses
system.l2.demand_accesses::total             28883185                       # number of demand (read+write) accesses
system.l2.overall_accesses::cpu.inst             1693                       # number of overall (read+write) accesses
system.l2.overall_accesses::cpu.data         28881492                       # number of overall (read+write) accesses
system.l2.overall_accesses::total            28883185                       # number of overall (read+write) accesses
system.l2.UpgradeReq_miss_rate::cpu.data            1                       # miss rate for UpgradeReq accesses
system.l2.UpgradeReq_miss_rate::total               1                       # miss rate for UpgradeReq accesses
system.l2.ReadExReq_miss_rate::cpu.data      0.999986                       # miss rate for ReadExReq accesses
system.l2.ReadExReq_miss_rate::total         0.999986                       # miss rate for ReadExReq accesses
system.l2.ReadCleanReq_miss_rate::cpu.inst     0.515653                       # miss rate for ReadCleanReq accesses
system.l2.ReadCleanReq_miss_rate::total      0.515653                       # miss rate for ReadCleanReq accesses
system.l2.ReadSharedReq_miss_rate::cpu.data     0.998161                       # miss rate for ReadSharedReq accesses
system.l2.ReadSharedReq_miss_rate::total     0.998161                       # miss rate for ReadSharedReq accesses
system.l2.demand_miss_rate::cpu.inst         0.515653                       # miss rate for demand accesses
system.l2.demand_miss_rate::cpu.data         0.998166                       # miss rate for demand accesses
system.l2.demand_miss_rate::total            0.998137                       # miss rate for demand accesses
system.l2.overall_miss_rate::cpu.inst        0.515653                       # miss rate for overall accesses
system.l2.overall_miss_rate::cpu.data        0.998166                       # miss rate for overall accesses
system.l2.overall_miss_rate::total           0.998137                       # miss rate for overall accesses
system.l2.UpgradeReq_avg_miss_latency::cpu.data 242825.365034                       # average UpgradeReq miss latency
system.l2.UpgradeReq_avg_miss_latency::total 242825.365034                       # average UpgradeReq miss latency
system.l2.ReadExReq_avg_miss_latency::cpu.data 408484.312752                       # average ReadExReq miss latency
system.l2.ReadExReq_avg_miss_latency::total 408484.312752                       # average ReadExReq miss latency
system.l2.ReadCleanReq_avg_miss_latency::cpu.inst 426510.309278                       # average ReadCleanReq miss latency
system.l2.ReadCleanReq_avg_miss_latency::total 426510.309278                       # average ReadCleanReq miss latency
system.l2.ReadSharedReq_avg_miss_latency::cpu.data 31528.874855                       # average ReadSharedReq miss latency
system.l2.ReadSharedReq_avg_miss_latency::total 31528.874855                       # average ReadSharedReq miss latency
system.l2.demand_avg_miss_latency::cpu.inst 426510.309278                       # average overall miss latency
system.l2.demand_avg_miss_latency::cpu.data 32477.431494                       # average overall miss latency
system.l2.demand_avg_miss_latency::total 32489.363440                       # average overall miss latency
system.l2.overall_avg_miss_latency::cpu.inst 426510.309278                       # average overall miss latency
system.l2.overall_avg_miss_latency::cpu.data 32477.431494                       # average overall miss latency
system.l2.overall_avg_miss_latency::total 32489.363440                       # average overall miss latency
system.l2.blocked_cycles::no_mshrs                  0                       # number of cycles access was blocked
system.l2.blocked_cycles::no_targets                0                       # number of cycles access was blocked
system.l2.blocked::no_mshrs                         0                       # number of cycles access was blocked
system.l2.blocked::no_targets                       0                       # number of cycles access was blocked
system.l2.avg_blocked_cycles::no_mshrs            nan                       # average number of cycles each access was blocked
system.l2.avg_blocked_cycles::no_targets          nan                       # average number of cycles each access was blocked
system.l2.writebacks::writebacks             56350725                       # number of writebacks
system.l2.writebacks::total                  56350725                       # number of writebacks
system.l2.CleanEvict_mshr_misses::writebacks          215                       # number of CleanEvict MSHR misses
system.l2.CleanEvict_mshr_misses::total           215                       # number of CleanEvict MSHR misses
system.l2.UpgradeReq_mshr_misses::cpu.data     56278134                       # number of UpgradeReq MSHR misses
system.l2.UpgradeReq_mshr_misses::total      56278134                       # number of UpgradeReq MSHR misses
system.l2.ReadExReq_mshr_misses::cpu.data        72543                       # number of ReadExReq MSHR misses
system.l2.ReadExReq_mshr_misses::total          72543                       # number of ReadExReq MSHR misses
system.l2.ReadCleanReq_mshr_misses::cpu.inst          873                       # number of ReadCleanReq MSHR misses
system.l2.ReadCleanReq_mshr_misses::total          873                       # number of ReadCleanReq MSHR misses
system.l2.ReadSharedReq_mshr_misses::cpu.data     28755971                       # number of ReadSharedReq MSHR misses
system.l2.ReadSharedReq_mshr_misses::total     28755971                       # number of ReadSharedReq MSHR misses
system.l2.demand_mshr_misses::cpu.inst            873                       # number of demand (read+write) MSHR misses
system.l2.demand_mshr_misses::cpu.data       28828514                       # number of demand (read+write) MSHR misses
system.l2.demand_mshr_misses::total          28829387                       # number of demand (read+write) MSHR misses
system.l2.overall_mshr_misses::cpu.inst           873                       # number of overall MSHR misses
system.l2.overall_mshr_misses::cpu.data      28828514                       # number of overall MSHR misses
system.l2.overall_mshr_misses::total         28829387                       # number of overall MSHR misses
system.l2.UpgradeReq_mshr_miss_latency::cpu.data 13102977343500                       # number of UpgradeReq MSHR miss cycles
system.l2.UpgradeReq_mshr_miss_latency::total 13102977343500                       # number of UpgradeReq MSHR miss cycles
system.l2.ReadExReq_mshr_miss_latency::cpu.data  28907247500                       # number of ReadExReq MSHR miss cycles
system.l2.ReadExReq_mshr_miss_latency::total  28907247500                       # number of ReadExReq MSHR miss cycles
system.l2.ReadCleanReq_mshr_miss_latency::cpu.inst    363613500                       # number of ReadCleanReq MSHR miss cycles
system.l2.ReadCleanReq_mshr_miss_latency::total    363613500                       # number of ReadCleanReq MSHR miss cycles
system.l2.ReadSharedReq_mshr_miss_latency::cpu.data 619083701000                       # number of ReadSharedReq MSHR miss cycles
system.l2.ReadSharedReq_mshr_miss_latency::total 619083701000                       # number of ReadSharedReq MSHR miss cycles
system.l2.demand_mshr_miss_latency::cpu.inst    363613500                       # number of demand (read+write) MSHR miss cycles
system.l2.demand_mshr_miss_latency::cpu.data 647990948500                       # number of demand (read+write) MSHR miss cycles
system.l2.demand_mshr_miss_latency::total 648354562000                       # number of demand (read+write) MSHR miss cycles
system.l2.overall_mshr_miss_latency::cpu.inst    363613500                       # number of overall MSHR miss cycles
system.l2.overall_mshr_miss_latency::cpu.data 647990948500                       # number of overall MSHR miss cycles
system.l2.overall_mshr_miss_latency::total 648354562000                       # number of overall MSHR miss cycles
system.l2.CleanEvict_mshr_miss_rate::writebacks          inf                       # mshr miss rate for CleanEvict accesses
system.l2.CleanEvict_mshr_miss_rate::total          inf                       # mshr miss rate for CleanEvict accesses
system.l2.UpgradeReq_mshr_miss_rate::cpu.data            1                       # mshr miss rate for UpgradeReq accesses
system.l2.UpgradeReq_mshr_miss_rate::total            1                       # mshr miss rate for UpgradeReq accesses
system.l2.ReadExReq_mshr_miss_rate::cpu.data     0.999986                       # mshr miss rate for ReadExReq accesses
system.l2.ReadExReq_mshr_miss_rate::total     0.999986                       # mshr miss rate for ReadExReq accesses
system.l2.ReadCleanReq_mshr_miss_rate::cpu.inst     0.515653                       # mshr miss rate for ReadCleanReq accesses
system.l2.ReadCleanReq_mshr_miss_rate::total     0.515653                       # mshr miss rate for ReadCleanReq accesses
system.l2.ReadSharedReq_mshr_miss_rate::cpu.data     0.998161                       # mshr miss rate for ReadSharedReq accesses
system.l2.ReadSharedReq_mshr_miss_rate::total     0.998161                       # mshr miss rate for ReadSharedReq accesses
system.l2.demand_mshr_miss_rate::cpu.inst     0.515653                       # mshr miss rate for demand accesses
system.l2.demand_mshr_miss_rate::cpu.data     0.998166                       # mshr miss rate for demand accesses
system.l2.demand_mshr_miss_rate::total       0.998137                       # mshr miss rate for demand accesses
system.l2.overall_mshr_miss_rate::cpu.inst     0.515653                       # mshr miss rate for overall accesses
system.l2.overall_mshr_miss_rate::cpu.data     0.998166                       # mshr miss rate for overall accesses
system.l2.overall_mshr_miss_rate::total      0.998137                       # mshr miss rate for overall accesses
system.l2.UpgradeReq_avg_mshr_miss_latency::cpu.data 232825.369503                       # average UpgradeReq mshr miss latency
system.l2.UpgradeReq_avg_mshr_miss_latency::total 232825.369503                       # average UpgradeReq mshr miss latency
system.l2.ReadExReq_avg_mshr_miss_latency::cpu.data 398484.312752                       # average ReadExReq mshr miss latency
system.l2.ReadExReq_avg_mshr_miss_latency::total 398484.312752                       # average ReadExReq mshr miss latency
system.l2.ReadCleanReq_avg_mshr_miss_latency::cpu.inst 416510.309278                       # average ReadCleanReq mshr miss latency
system.l2.ReadCleanReq_avg_mshr_miss_latency::total 416510.309278                       # average ReadCleanReq mshr miss latency
system.l2.ReadSharedReq_avg_mshr_miss_latency::cpu.data 21528.874855                       # average ReadSharedReq mshr miss latency
system.l2.ReadSharedReq_avg_mshr_miss_latency::total 21528.874855                       # average ReadSharedReq mshr miss latency
system.l2.demand_avg_mshr_miss_latency::cpu.inst 416510.309278                       # average overall mshr miss latency
system.l2.demand_avg_mshr_miss_latency::cpu.data 22477.431494                       # average overall mshr miss latency
system.l2.demand_avg_mshr_miss_latency::total 22489.363440                       # average overall mshr miss latency
system.l2.overall_avg_mshr_miss_latency::cpu.inst 416510.309278                       # average overall mshr miss latency
system.l2.overall_avg_mshr_miss_latency::cpu.data 22477.431494                       # average overall mshr miss latency
system.l2.overall_avg_mshr_miss_latency::total 22489.363440                       # average overall mshr miss latency
system.l2.replacements                       28774368                       # number of replacements
system.l3.tags.pwrStateResidencyTicks::UNDEFINED 16511599541000                       # Cumulative time (in ticks) in various power states
system.l3.tags.tagsinuse                 14763.390786                       # Cycle average of tags in use
system.l3.tags.total_refs                   170232227                       # Total number of references to valid blocks.
system.l3.tags.sampled_refs                     19219                       # Sample count of references to valid blocks.
system.l3.tags.avg_refs                   8857.496592                       # Average number of references to valid blocks.
system.l3.tags.warmup_cycle                    418000                       # Cycle when the warmup percentage was hit.
system.l3.tags.occ_blocks::cpu.inst        395.727959                       # Average occupied blocks per requestor
system.l3.tags.occ_blocks::cpu.data      14367.662827                       # Average occupied blocks per requestor
system.l3.tags.occ_percent::cpu.inst         0.024153                       # Average percentage of cache occupancy
system.l3.tags.occ_percent::cpu.data         0.876933                       # Average percentage of cache occupancy
system.l3.tags.occ_percent::total            0.901086                       # Average percentage of cache occupancy
system.l3.tags.occ_task_id_blocks::1024         16384                       # Occupied blocks per task id
system.l3.tags.age_task_id_blocks_1024::0           24                       # Occupied blocks per task id
system.l3.tags.age_task_id_blocks_1024::1          101                       # Occupied blocks per task id
system.l3.tags.age_task_id_blocks_1024::3            4                       # Occupied blocks per task id
system.l3.tags.age_task_id_blocks_1024::4        16255                       # Occupied blocks per task id
system.l3.tags.occ_task_id_percent::1024            1                       # Percentage of cache occupancy per task id
system.l3.tags.tag_accesses                 680948147                       # Number of tag accesses
system.l3.tags.data_accesses                680948147                       # Number of data accesses
system.l3.pwrStateResidencyTicks::UNDEFINED 16511599541000                       # Cumulative time (in ticks) in various power states
system.l3.WriteClean_hits::writebacks        56350725                       # number of WriteClean hits
system.l3.WriteClean_hits::total             56350725                       # number of WriteClean hits
system.l3.ReadExReq_hits::cpu.data                  6                       # number of ReadExReq hits
system.l3.ReadExReq_hits::total                     6                       # number of ReadExReq hits
system.l3.ReadSharedReq_hits::cpu.inst            127                       # number of ReadSharedReq hits
system.l3.ReadSharedReq_hits::cpu.data       28754854                       # number of ReadSharedReq hits
system.l3.ReadSharedReq_hits::total          28754981                       # number of ReadSharedReq hits
system.l3.demand_hits::cpu.inst                   127                       # number of demand (read+write) hits
system.l3.demand_hits::cpu.data              28754860                       # number of demand (read+write) hits
system.l3.demand_hits::total                 28754987                       # number of demand (read+write) hits
system.l3.overall_hits::cpu.inst                  127                       # number of overall hits
system.l3.overall_hits::cpu.data             28754860                       # number of overall hits
system.l3.overall_hits::total                28754987                       # number of overall hits
system.l3.UpgradeReq_misses::cpu.data        56333266                       # number of UpgradeReq misses
system.l3.UpgradeReq_misses::total           56333266                       # number of UpgradeReq misses
system.l3.ReadExReq_misses::cpu.data            17405                       # number of ReadExReq misses
system.l3.ReadExReq_misses::total               17405                       # number of ReadExReq misses
system.l3.ReadSharedReq_misses::cpu.inst          746                       # number of ReadSharedReq misses
system.l3.ReadSharedReq_misses::cpu.data         1117                       # number of ReadSharedReq misses
system.l3.ReadSharedReq_misses::total            1863                       # number of ReadSharedReq misses
system.l3.demand_misses::cpu.inst                 746                       # number of demand (read+write) misses
system.l3.demand_misses::cpu.data               18522                       # number of demand (read+write) misses
system.l3.demand_misses::total                  19268                       # number of demand (read+write) misses
system.l3.overall_misses::cpu.inst                746                       # number of overall misses
system.l3.overall_misses::cpu.data              18522                       # number of overall misses
system.l3.overall_misses::total                 19268                       # number of overall misses
system.l3.UpgradeReq_miss_latency::cpu.data 12495272587000                       # number of UpgradeReq miss cycles
system.l3.UpgradeReq_miss_latency::total 12495272587000                       # number of UpgradeReq miss cycles
system.l3.ReadExReq_miss_latency::cpu.data  16754494000                       # number of ReadExReq miss cycles
system.l3.ReadExReq_miss_latency::total   16754494000                       # number of ReadExReq miss cycles
system.l3.ReadSharedReq_miss_latency::cpu.inst    352677000                       # number of ReadSharedReq miss cycles
system.l3.ReadSharedReq_miss_latency::cpu.data    842052000                       # number of ReadSharedReq miss cycles
system.l3.ReadSharedReq_miss_latency::total   1194729000                       # number of ReadSharedReq miss cycles
system.l3.demand_miss_latency::cpu.inst     352677000                       # number of demand (read+write) miss cycles
system.l3.demand_miss_latency::cpu.data   17596546000                       # number of demand (read+write) miss cycles
system.l3.demand_miss_latency::total      17949223000                       # number of demand (read+write) miss cycles
system.l3.overall_miss_latency::cpu.inst    352677000                       # number of overall miss cycles
system.l3.overall_miss_latency::cpu.data  17596546000                       # number of overall miss cycles
system.l3.overall_miss_latency::total     17949223000                       # number of overall miss cycles
system.l3.WriteClean_accesses::writebacks     56350725                       # number of WriteClean accesses(hits+misses)
system.l3.WriteClean_accesses::total         56350725                       # number of WriteClean accesses(hits+misses)
system.l3.UpgradeReq_accesses::cpu.data      56333266                       # number of UpgradeReq accesses(hits+misses)
system.l3.UpgradeReq_accesses::total         56333266                       # number of UpgradeReq accesses(hits+misses)
system.l3.ReadExReq_accesses::cpu.data          17411                       # number of ReadExReq accesses(hits+misses)
system.l3.ReadExReq_accesses::total             17411                       # number of ReadExReq accesses(hits+misses)
system.l3.ReadSharedReq_accesses::cpu.inst          873                       # number of ReadSharedReq accesses(hits+misses)
system.l3.ReadSharedReq_accesses::cpu.data     28755971                       # number of ReadSharedReq accesses(hits+misses)
system.l3.ReadSharedReq_accesses::total      28756844                       # number of ReadSharedReq accesses(hits+misses)
system.l3.demand_accesses::cpu.inst               873                       # number of demand (read+write) accesses
system.l3.demand_accesses::cpu.data          28773382                       # number of demand (read+write) accesses
system.l3.demand_accesses::total             28774255                       # number of demand (read+write) accesses
system.l3.overall_accesses::cpu.inst              873                       # number of overall (read+write) accesses
system.l3.overall_accesses::cpu.data         28773382                       # number of overall (read+write) accesses
system.l3.overall_accesses::total            28774255                       # number of overall (read+write) accesses
system.l3.UpgradeReq_miss_rate::cpu.data            1                       # miss rate for UpgradeReq accesses
system.l3.UpgradeReq_miss_rate::total               1                       # miss rate for UpgradeReq accesses
system.l3.ReadExReq_miss_rate::cpu.data      0.999655                       # miss rate for ReadExReq accesses
system.l3.ReadExReq_miss_rate::total         0.999655                       # miss rate for ReadExReq accesses
system.l3.ReadSharedReq_miss_rate::cpu.inst     0.854525                       # miss rate for ReadSharedReq accesses
system.l3.ReadSharedReq_miss_rate::cpu.data     0.000039                       # miss rate for ReadSharedReq accesses
system.l3.ReadSharedReq_miss_rate::total     0.000065                       # miss rate for ReadSharedReq accesses
system.l3.demand_miss_rate::cpu.inst         0.854525                       # miss rate for demand accesses
system.l3.demand_miss_rate::cpu.data         0.000644                       # miss rate for demand accesses
system.l3.demand_miss_rate::total            0.000670                       # miss rate for demand accesses
system.l3.overall_miss_rate::cpu.inst        0.854525                       # miss rate for overall accesses
system.l3.overall_miss_rate::cpu.data        0.000644                       # miss rate for overall accesses
system.l3.overall_miss_rate::total           0.000670                       # miss rate for overall accesses
system.l3.UpgradeReq_avg_miss_latency::cpu.data 221809.837672                       # average UpgradeReq miss latency
system.l3.UpgradeReq_avg_miss_latency::total 221809.837672                       # average UpgradeReq miss latency
system.l3.ReadExReq_avg_miss_latency::cpu.data 962625.337547                       # average ReadExReq miss latency
system.l3.ReadExReq_avg_miss_latency::total 962625.337547                       # average ReadExReq miss latency
system.l3.ReadSharedReq_avg_miss_latency::cpu.inst 472757.372654                       # average ReadSharedReq miss latency
system.l3.ReadSharedReq_avg_miss_latency::cpu.data 753851.387645                       # average ReadSharedReq miss latency
system.l3.ReadSharedReq_avg_miss_latency::total 641293.075684                       # average ReadSharedReq miss latency
system.l3.demand_avg_miss_latency::cpu.inst 472757.372654                       # average overall miss latency
system.l3.demand_avg_miss_latency::cpu.data 950034.877443                       # average overall miss latency
system.l3.demand_avg_miss_latency::total 931556.103384                       # average overall miss latency
system.l3.overall_avg_miss_latency::cpu.inst 472757.372654                       # average overall miss latency
system.l3.overall_avg_miss_latency::cpu.data 950034.877443                       # average overall miss latency
system.l3.overall_avg_miss_latency::total 931556.103384                       # average overall miss latency
system.l3.blocked_cycles::no_mshrs                  0                       # number of cycles access was blocked
system.l3.blocked_cycles::no_targets                0                       # number of cycles access was blocked
system.l3.blocked::no_mshrs                         0                       # number of cycles access was blocked
system.l3.blocked::no_targets                       0                       # number of cycles access was blocked
system.l3.avg_blocked_cycles::no_mshrs            nan                       # average number of cycles each access was blocked
system.l3.avg_blocked_cycles::no_targets          nan                       # average number of cycles each access was blocked
system.l3.writebacks::writebacks             56350725                       # number of writebacks
system.l3.writebacks::total                  56350725                       # number of writebacks
system.l3.CleanEvict_mshr_misses::writebacks            5                       # number of CleanEvict MSHR misses
system.l3.CleanEvict_mshr_misses::total             5                       # number of CleanEvict MSHR misses
system.l3.UpgradeReq_mshr_misses::cpu.data     56333266                       # number of UpgradeReq MSHR misses
system.l3.UpgradeReq_mshr_misses::total      56333266                       # number of UpgradeReq MSHR misses
system.l3.ReadExReq_mshr_misses::cpu.data        17405                       # number of ReadExReq MSHR misses
system.l3.ReadExReq_mshr_misses::total          17405                       # number of ReadExReq MSHR misses
system.l3.ReadSharedReq_mshr_misses::cpu.inst          746                       # number of ReadSharedReq MSHR misses
system.l3.ReadSharedReq_mshr_misses::cpu.data         1117                       # number of ReadSharedReq MSHR misses
system.l3.ReadSharedReq_mshr_misses::total         1863                       # number of ReadSharedReq MSHR misses
system.l3.demand_mshr_misses::cpu.inst            746                       # number of demand (read+write) MSHR misses
system.l3.demand_mshr_misses::cpu.data          18522                       # number of demand (read+write) MSHR misses
system.l3.demand_mshr_misses::total             19268                       # number of demand (read+write) MSHR misses
system.l3.overall_mshr_misses::cpu.inst           746                       # number of overall MSHR misses
system.l3.overall_mshr_misses::cpu.data         18522                       # number of overall MSHR misses
system.l3.overall_mshr_misses::total            19268                       # number of overall MSHR misses
system.l3.UpgradeReq_mshr_miss_latency::cpu.data 11931939927000                       # number of UpgradeReq MSHR miss cycles
system.l3.UpgradeReq_mshr_miss_latency::total 11931939927000                       # number of UpgradeReq MSHR miss cycles
system.l3.ReadExReq_mshr_miss_latency::cpu.data  16580444000                       # number of ReadExReq MSHR miss cycles
system.l3.ReadExReq_mshr_miss_latency::total  16580444000                       # number of ReadExReq MSHR miss cycles
system.l3.ReadSharedReq_mshr_miss_latency::cpu.inst    345217000                       # number of ReadSharedReq MSHR miss cycles
system.l3.ReadSharedReq_mshr_miss_latency::cpu.data    830882000                       # number of ReadSharedReq MSHR miss cycles
system.l3.ReadSharedReq_mshr_miss_latency::total   1176099000                       # number of ReadSharedReq MSHR miss cycles
system.l3.demand_mshr_miss_latency::cpu.inst    345217000                       # number of demand (read+write) MSHR miss cycles
system.l3.demand_mshr_miss_latency::cpu.data  17411326000                       # number of demand (read+write) MSHR miss cycles
system.l3.demand_mshr_miss_latency::total  17756543000                       # number of demand (read+write) MSHR miss cycles
system.l3.overall_mshr_miss_latency::cpu.inst    345217000                       # number of overall MSHR miss cycles
system.l3.overall_mshr_miss_latency::cpu.data  17411326000                       # number of overall MSHR miss cycles
system.l3.overall_mshr_miss_latency::total  17756543000                       # number of overall MSHR miss cycles
system.l3.CleanEvict_mshr_miss_rate::writebacks          inf                       # mshr miss rate for CleanEvict accesses
system.l3.CleanEvict_mshr_miss_rate::total          inf                       # mshr miss rate for CleanEvict accesses
system.l3.UpgradeReq_mshr_miss_rate::cpu.data            1                       # mshr miss rate for UpgradeReq accesses
system.l3.UpgradeReq_mshr_miss_rate::total            1                       # mshr miss rate for UpgradeReq accesses
system.l3.ReadExReq_mshr_miss_rate::cpu.data     0.999655                       # mshr miss rate for ReadExReq accesses
system.l3.ReadExReq_mshr_miss_rate::total     0.999655                       # mshr miss rate for ReadExReq accesses
system.l3.ReadSharedReq_mshr_miss_rate::cpu.inst     0.854525                       # mshr miss rate for ReadSharedReq accesses
system.l3.ReadSharedReq_mshr_miss_rate::cpu.data     0.000039                       # mshr miss rate for ReadSharedReq accesses
system.l3.ReadSharedReq_mshr_miss_rate::total     0.000065                       # mshr miss rate for ReadSharedReq accesses
system.l3.demand_mshr_miss_rate::cpu.inst     0.854525                       # mshr miss rate for demand accesses
system.l3.demand_mshr_miss_rate::cpu.data     0.000644                       # mshr miss rate for demand accesses
system.l3.demand_mshr_miss_rate::total       0.000670                       # mshr miss rate for demand accesses
system.l3.overall_mshr_miss_rate::cpu.inst     0.854525                       # mshr miss rate for overall accesses
system.l3.overall_mshr_miss_rate::cpu.data     0.000644                       # mshr miss rate for overall accesses
system.l3.overall_mshr_miss_rate::total      0.000670                       # mshr miss rate for overall accesses
system.l3.UpgradeReq_avg_mshr_miss_latency::cpu.data 211809.837672                       # average UpgradeReq mshr miss latency
system.l3.UpgradeReq_avg_mshr_miss_latency::total 211809.837672                       # average UpgradeReq mshr miss latency
system.l3.ReadExReq_avg_mshr_miss_latency::cpu.data 952625.337547                       # average ReadExReq mshr miss latency
system.l3.ReadExReq_avg_mshr_miss_latency::total 952625.337547                       # average ReadExReq mshr miss latency
system.l3.ReadSharedReq_avg_mshr_miss_latency::cpu.inst 462757.372654                       # average ReadSharedReq mshr miss latency
system.l3.ReadSharedReq_avg_mshr_miss_latency::cpu.data 743851.387645                       # average ReadSharedReq mshr miss latency
system.l3.ReadSharedReq_avg_mshr_miss_latency::total 631293.075684                       # average ReadSharedReq mshr miss latency
system.l3.demand_avg_mshr_miss_latency::cpu.inst 462757.372654                       # average overall mshr miss latency
system.l3.demand_avg_mshr_miss_latency::cpu.data 940034.877443                       # average overall mshr miss latency
system.l3.demand_avg_mshr_miss_latency::total 921556.103384                       # average overall mshr miss latency
system.l3.overall_avg_mshr_miss_latency::cpu.inst 462757.372654                       # average overall mshr miss latency
system.l3.overall_avg_mshr_miss_latency::cpu.data 940034.877443                       # average overall mshr miss latency
system.l3.overall_avg_mshr_miss_latency::total 921556.103384                       # average overall mshr miss latency
system.l3.replacements                           2835                       # number of replacements
system.membus.snoop_filter.tot_requests      56355309                       # Total number of requests made to the snoop filter.
system.membus.snoop_filter.hit_single_requests     56336090                       # Number of requests hitting in the snoop filter with a single holder of the requested data.
system.membus.snoop_filter.hit_multi_requests            0                       # Number of requests hitting in the snoop filter with multiple (>1) holders of the requested data.
system.membus.snoop_filter.tot_snoops               0                       # Total number of snoops made to the snoop filter.
system.membus.snoop_filter.hit_single_snoops            0                       # Number of snoops hitting in the snoop filter with a single holder of the requested data.
system.membus.snoop_filter.hit_multi_snoops            0                       # Number of snoops hitting in the snoop filter with multiple (>1) holders of the requested data.
system.membus.pwrStateResidencyTicks::UNDEFINED 16511599541000                       # Cumulative time (in ticks) in various power states
system.membus.trans_dist::ReadResp               1863                       # Transaction distribution
system.membus.trans_dist::WriteClean         56350725                       # Transaction distribution
system.membus.trans_dist::CleanEvict             2775                       # Transaction distribution
system.membus.trans_dist::UpgradeReq         56333315                       # Transaction distribution
system.membus.trans_dist::ReadExReq             17356                       # Transaction distribution
system.membus.trans_dist::ReadExResp            17356                       # Transaction distribution
system.membus.trans_dist::ReadSharedReq          1863                       # Transaction distribution
system.membus.pkt_count_system.l3.mem_side::system.mem_ctrls.port    112725253                       # Packet count per connected master and slave (bytes)
system.membus.pkt_count_system.l3.mem_side::total    112725253                       # Packet count per connected master and slave (bytes)
system.membus.pkt_count::total              112725253                       # Packet count per connected master and slave (bytes)
system.membus.pkt_size_system.l3.mem_side::system.mem_ctrls.port   3607676416                       # Cumulative packet size per connected master and slave (bytes)
system.membus.pkt_size_system.l3.mem_side::total   3607676416                       # Cumulative packet size per connected master and slave (bytes)
system.membus.pkt_size::total              3607676416                       # Cumulative packet size per connected master and slave (bytes)
system.membus.snoops                                0                       # Total snoops (count)
system.membus.snoopTraffic                          0                       # Total snoop traffic (bytes)
system.membus.snoop_fanout::samples          56352534                       # Request fanout histogram
system.membus.snoop_fanout::mean                    0                       # Request fanout histogram
system.membus.snoop_fanout::stdev                   0                       # Request fanout histogram
system.membus.snoop_fanout::underflows              0      0.00%      0.00% # Request fanout histogram
system.membus.snoop_fanout::0                56352534    100.00%    100.00% # Request fanout histogram
system.membus.snoop_fanout::1                       0      0.00%    100.00% # Request fanout histogram
system.membus.snoop_fanout::overflows               0      0.00%    100.00% # Request fanout histogram
system.membus.snoop_fanout::min_value               0                       # Request fanout histogram
system.membus.snoop_fanout::max_value               0                       # Request fanout histogram
system.membus.snoop_fanout::total            56352534                       # Request fanout histogram
system.membus.reqLayer2.occupancy        386339860000                       # Layer occupancy (ticks)
system.membus.reqLayer2.utilization               2.3                       # Layer utilization (%)
system.membus.respLayer1.occupancy           96183500                       # Layer occupancy (ticks)
system.membus.respLayer1.utilization              0.0                       # Layer utilization (%)
system.tol2bus.snoop_filter.tot_requests    114044376                       # Total number of requests made to the snoop filter.
system.tol2bus.snoop_filter.hit_single_requests     85161191                       # Number of requests hitting in the snoop filter with a single holder of the requested data.
system.tol2bus.snoop_filter.hit_multi_requests            0                       # Number of requests hitting in the snoop filter with multiple (>1) holders of the requested data.
system.tol2bus.snoop_filter.tot_snoops            662                       # Total number of snoops made to the snoop filter.
system.tol2bus.snoop_filter.hit_single_snoops          662                       # Number of snoops hitting in the snoop filter with a single holder of the requested data.
system.tol2bus.snoop_filter.hit_multi_snoops            0                       # Number of snoops hitting in the snoop filter with multiple (>1) holders of the requested data.
system.tol2bus.pwrStateResidencyTicks::UNDEFINED 16511599541000                       # Cumulative time (in ticks) in various power states
system.tol2bus.trans_dist::ReadResp          28810641                       # Transaction distribution
system.tol2bus.trans_dist::WritebackClean         1629                       # Transaction distribution
system.tol2bus.trans_dist::WriteClean        56350725                       # Transaction distribution
system.tol2bus.trans_dist::CleanEvict        57655861                       # Transaction distribution
system.tol2bus.trans_dist::UpgradeReq        56278134                       # Transaction distribution
system.tol2bus.trans_dist::UpgradeResp       56278134                       # Transaction distribution
system.tol2bus.trans_dist::ReadExReq            72544                       # Transaction distribution
system.tol2bus.trans_dist::ReadExResp           72544                       # Transaction distribution
system.tol2bus.trans_dist::ReadCleanReq          1693                       # Transaction distribution
system.tol2bus.trans_dist::ReadSharedReq     28808948                       # Transaction distribution
system.tol2bus.pkt_count_system.cpu.icache.mem_side::system.l2.cpu_side         5015                       # Packet count per connected master and slave (bytes)
system.tol2bus.pkt_count_system.cpu.dcache.mem_side::system.l2.cpu_side    255551405                       # Packet count per connected master and slave (bytes)
system.tol2bus.pkt_count::total             255556420                       # Packet count per connected master and slave (bytes)
system.tol2bus.pkt_size_system.cpu.icache.mem_side::system.l2.cpu_side       212608                       # Cumulative packet size per connected master and slave (bytes)
system.tol2bus.pkt_size_system.cpu.dcache.mem_side::system.l2.cpu_side   5454861888                       # Cumulative packet size per connected master and slave (bytes)
system.tol2bus.pkt_size::total             5455074496                       # Cumulative packet size per connected master and slave (bytes)
system.tol2bus.snoops                        28774433                       # Total snoops (count)
system.tol2bus.snoopTraffic                         0                       # Total snoop traffic (bytes)
system.tol2bus.snoop_fanout::samples        113935752                       # Request fanout histogram
system.tol2bus.snoop_fanout::mean            0.000006                       # Request fanout histogram
system.tol2bus.snoop_fanout::stdev           0.002410                       # Request fanout histogram
system.tol2bus.snoop_fanout::underflows             0      0.00%      0.00% # Request fanout histogram
system.tol2bus.snoop_fanout::0              113935090    100.00%    100.00% # Request fanout histogram
system.tol2bus.snoop_fanout::1                    662      0.00%    100.00% # Request fanout histogram
system.tol2bus.snoop_fanout::2                      0      0.00%    100.00% # Request fanout histogram
system.tol2bus.snoop_fanout::3                      0      0.00%    100.00% # Request fanout histogram
system.tol2bus.snoop_fanout::4                      0      0.00%    100.00% # Request fanout histogram
system.tol2bus.snoop_fanout::overflows              0      0.00%    100.00% # Request fanout histogram
system.tol2bus.snoop_fanout::min_value              0                       # Request fanout histogram
system.tol2bus.snoop_fanout::max_value              1                       # Request fanout histogram
system.tol2bus.snoop_fanout::total          113935752                       # Request fanout histogram
system.tol2bus.reqLayer0.occupancy       141549904500                       # Layer occupancy (ticks)
system.tol2bus.reqLayer0.utilization              0.9                       # Layer utilization (%)
system.tol2bus.respLayer0.occupancy           2539500                       # Layer occupancy (ticks)
system.tol2bus.respLayer0.utilization             0.0                       # Layer utilization (%)
system.tol2bus.respLayer1.occupancy       71461305000                       # Layer occupancy (ticks)
system.tol2bus.respLayer1.utilization             0.4                       # Layer utilization (%)
system.tol3bus.snoop_filter.tot_requests    113881507                       # Total number of requests made to the snoop filter.
system.tol3bus.snoop_filter.hit_single_requests     85107252                       # Number of requests hitting in the snoop filter with a single holder of the requested data.
system.tol3bus.snoop_filter.hit_multi_requests            0                       # Number of requests hitting in the snoop filter with multiple (>1) holders of the requested data.
system.tol3bus.snoop_filter.tot_snoops             65                       # Total number of snoops made to the snoop filter.
system.tol3bus.snoop_filter.hit_single_snoops           65                       # Number of snoops hitting in the snoop filter with a single holder of the requested data.
system.tol3bus.snoop_filter.hit_multi_snoops            0                       # Number of snoops hitting in the snoop filter with multiple (>1) holders of the requested data.
system.tol3bus.pwrStateResidencyTicks::UNDEFINED 16511599541000                       # Cumulative time (in ticks) in various power states
system.tol3bus.trans_dist::ReadResp          28756844                       # Transaction distribution
system.tol3bus.trans_dist::WriteClean        56350725                       # Transaction distribution
system.tol3bus.trans_dist::CleanEvict        28776821                       # Transaction distribution
system.tol3bus.trans_dist::UpgradeReq        56333266                       # Transaction distribution
system.tol3bus.trans_dist::UpgradeResp       56333266                       # Transaction distribution
system.tol3bus.trans_dist::ReadExReq            17411                       # Transaction distribution
system.tol3bus.trans_dist::ReadExResp           17411                       # Transaction distribution
system.tol3bus.trans_dist::ReadSharedReq     28756844                       # Transaction distribution
system.tol3bus.pkt_count_system.l2.mem_side::system.l3.cpu_side    255339753                       # Packet count per connected master and slave (bytes)
system.tol3bus.pkt_size_system.l2.mem_side::system.l3.cpu_side   5447998720                       # Cumulative packet size per connected master and slave (bytes)
system.tol3bus.snoops                            2835                       # Total snoops (count)
system.tol3bus.snoopTraffic                         0                       # Total snoop traffic (bytes)
system.tol3bus.snoop_fanout::samples         85110356                       # Request fanout histogram
system.tol3bus.snoop_fanout::mean            0.000001                       # Request fanout histogram
system.tol3bus.snoop_fanout::stdev           0.000874                       # Request fanout histogram
system.tol3bus.snoop_fanout::underflows             0      0.00%      0.00% # Request fanout histogram
system.tol3bus.snoop_fanout::0               85110291    100.00%    100.00% # Request fanout histogram
system.tol3bus.snoop_fanout::1                     65      0.00%    100.00% # Request fanout histogram
system.tol3bus.snoop_fanout::overflows              0      0.00%    100.00% # Request fanout histogram
system.tol3bus.snoop_fanout::min_value              0                       # Request fanout histogram
system.tol3bus.snoop_fanout::max_value              1                       # Request fanout histogram
system.tol3bus.snoop_fanout::total           85110356                       # Request fanout histogram
system.tol3bus.reqLayer0.occupancy       141466841000                       # Layer occupancy (ticks)
system.tol3bus.reqLayer0.utilization              0.9                       # Layer utilization (%)
system.tol3bus.respLayer0.occupancy       71328015500                       # Layer occupancy (ticks)
system.tol3bus.respLayer0.utilization             0.4                       # Layer utilization (%)

---------- End Simulation Statistics   ----------
