
---------- Begin Simulation Statistics ----------
sim_seconds                                  0.097099                       # Number of seconds simulated
sim_ticks                                 97099047000                       # Number of ticks simulated
final_tick                                97099047000                       # Number of ticks from beginning of simulation (restored from checkpoints and never reset)
sim_freq                                 1000000000000                       # Frequency of simulated ticks
host_inst_rate                                1638797                       # Simulator instruction rate (inst/s)
host_op_rate                                  2703734                       # Simulator op (including micro ops) rate (op/s)
host_tick_rate                             3554486981                       # Simulator tick rate (ticks/s)
host_mem_usage                                 669256                       # Number of bytes of host memory used
host_seconds                                    27.32                       # Real time elapsed on the host
sim_insts                                    44767514                       # Number of instructions simulated
sim_ops                                      73858728                       # Number of ops (including micro ops) simulated
system.voltage_domain.voltage                       1                       # Voltage in Volts
system.clk_domain.clock                          1000                       # Clock period in ticks
system.mem_ctrls.pwrStateResidencyTicks::UNDEFINED  97099047000                       # Cumulative time (in ticks) in various power states
system.mem_ctrls.bytes_read::cpu.inst           46848                       # Number of bytes read from this memory
system.mem_ctrls.bytes_read::cpu.data          497600                       # Number of bytes read from this memory
system.mem_ctrls.bytes_read::total             544448                       # Number of bytes read from this memory
system.mem_ctrls.bytes_inst_read::cpu.inst        46848                       # Number of instructions bytes read from this memory
system.mem_ctrls.bytes_inst_read::total         46848                       # Number of instructions bytes read from this memory
system.mem_ctrls.num_reads::cpu.inst              732                       # Number of read requests responded to by this memory
system.mem_ctrls.num_reads::cpu.data             7775                       # Number of read requests responded to by this memory
system.mem_ctrls.num_reads::total                8507                       # Number of read requests responded to by this memory
system.mem_ctrls.bw_read::cpu.inst             482476                       # Total read bandwidth from this memory (bytes/s)
system.mem_ctrls.bw_read::cpu.data            5124664                       # Total read bandwidth from this memory (bytes/s)
system.mem_ctrls.bw_read::total               5607141                       # Total read bandwidth from this memory (bytes/s)
system.mem_ctrls.bw_inst_read::cpu.inst        482476                       # Instruction read bandwidth from this memory (bytes/s)
system.mem_ctrls.bw_inst_read::total           482476                       # Instruction read bandwidth from this memory (bytes/s)
system.mem_ctrls.bw_total::cpu.inst            482476                       # Total bandwidth to/from this memory (bytes/s)
system.mem_ctrls.bw_total::cpu.data           5124664                       # Total bandwidth to/from this memory (bytes/s)
system.mem_ctrls.bw_total::total              5607141                       # Total bandwidth to/from this memory (bytes/s)
system.pwrStateResidencyTicks::UNDEFINED  97099047000                       # Cumulative time (in ticks) in various power states
system.cpu_voltage_domain.voltage                   1                       # Voltage in Volts
system.cpu_clk_domain.clock                       500                       # Clock period in ticks
system.cpu.dtb.walker.pwrStateResidencyTicks::UNDEFINED  97099047000                       # Cumulative time (in ticks) in various power states
system.cpu.dtb.rdAccesses                    20998392                       # TLB accesses on read requests
system.cpu.dtb.wrAccesses                     5824775                       # TLB accesses on write requests
system.cpu.dtb.rdMisses                           229                       # TLB misses on read requests
system.cpu.dtb.wrMisses                           111                       # TLB misses on write requests
system.cpu.apic_clk_domain.clock                 8000                       # Clock period in ticks
system.cpu.interrupts.pwrStateResidencyTicks::UNDEFINED  97099047000                       # Cumulative time (in ticks) in various power states
system.cpu.itb.walker.pwrStateResidencyTicks::UNDEFINED  97099047000                       # Cumulative time (in ticks) in various power states
system.cpu.itb.rdAccesses                           0                       # TLB accesses on read requests
system.cpu.itb.wrAccesses                    59428407                       # TLB accesses on write requests
system.cpu.itb.rdMisses                             0                       # TLB misses on read requests
system.cpu.itb.wrMisses                            78                       # TLB misses on write requests
system.cpu.workload.numSyscalls                    25                       # Number of system calls
system.cpu.pwrStateResidencyTicks::ON     97099047000                       # Cumulative time (in ticks) in various power states
system.cpu.numCycles                        194198094                       # number of cpu cycles simulated
system.cpu.numWorkItemsStarted                      0                       # number of work items this cpu started
system.cpu.numWorkItemsCompleted                    0                       # number of work items this cpu completed
system.cpu.committedInsts                    44767514                       # Number of instructions committed
system.cpu.committedOps                      73858728                       # Number of ops (including micro ops) committed
system.cpu.num_int_alu_accesses              73334751                       # Number of integer alu accesses
system.cpu.num_fp_alu_accesses                   4306                       # Number of float alu accesses
system.cpu.num_vec_alu_accesses                     0                       # Number of vector alu accesses
system.cpu.num_func_calls                      945810                       # number of times a function call or return occured
system.cpu.num_conditional_control_insts      4246093                       # number of instructions that are conditional controls
system.cpu.num_int_insts                     73334751                       # number of integer instructions
system.cpu.num_fp_insts                          4306                       # number of float instructions
system.cpu.num_vec_insts                            0                       # number of vector instructions
system.cpu.num_int_register_reads           164563947                       # number of times the integer registers were read
system.cpu.num_int_register_writes           64004007                       # number of times the integer registers were written
system.cpu.num_fp_register_reads                 6398                       # number of times the floating registers were read
system.cpu.num_fp_register_writes                3197                       # number of times the floating registers were written
system.cpu.num_vec_register_reads                   0                       # number of times the vector registers were read
system.cpu.num_vec_register_writes                  0                       # number of times the vector registers were written
system.cpu.num_cc_register_reads             27729221                       # number of times the CC registers were read
system.cpu.num_cc_register_writes            24993491                       # number of times the CC registers were written
system.cpu.num_mem_refs                      26823158                       # number of memory refs
system.cpu.num_load_insts                    20998383                       # Number of load instructions
system.cpu.num_store_insts                    5824775                       # Number of store instructions
system.cpu.num_idle_cycles                          0                       # Number of idle cycles
system.cpu.num_busy_cycles                  194198094                       # Number of busy cycles
system.cpu.not_idle_fraction                        1                       # Percentage of non-idle cycles
system.cpu.idle_fraction                            0                       # Percentage of idle cycles
system.cpu.Branches                           5689948                       # Number of branches fetched
system.cpu.op_class::No_OpClass                177072      0.24%      0.24% # Class of executed instruction
system.cpu.op_class::IntAlu                  45851699     62.08%     62.32% # Class of executed instruction
system.cpu.op_class::IntMult                       15      0.00%     62.32% # Class of executed instruction
system.cpu.op_class::IntDiv                   1004199      1.36%     63.68% # Class of executed instruction
system.cpu.op_class::FloatAdd                     132      0.00%     63.68% # Class of executed instruction
system.cpu.op_class::FloatCmp                       0      0.00%     63.68% # Class of executed instruction
system.cpu.op_class::FloatCvt                       0      0.00%     63.68% # Class of executed instruction
system.cpu.op_class::FloatMult                      0      0.00%     63.68% # Class of executed instruction
system.cpu.op_class::FloatMultAcc                   0      0.00%     63.68% # Class of executed instruction
system.cpu.op_class::FloatDiv                       0      0.00%     63.68% # Class of executed instruction
system.cpu.op_class::FloatMisc                      0      0.00%     63.68% # Class of executed instruction
system.cpu.op_class::FloatSqrt                      0      0.00%     63.68% # Class of executed instruction
system.cpu.op_class::SimdAdd                      348      0.00%     63.68% # Class of executed instruction
system.cpu.op_class::SimdAddAcc                     0      0.00%     63.68% # Class of executed instruction
system.cpu.op_class::SimdAlu                      682      0.00%     63.68% # Class of executed instruction
system.cpu.op_class::SimdCmp                        0      0.00%     63.68% # Class of executed instruction
system.cpu.op_class::SimdCvt                      770      0.00%     63.68% # Class of executed instruction
system.cpu.op_class::SimdMisc                     524      0.00%     63.68% # Class of executed instruction
system.cpu.op_class::SimdMult                       0      0.00%     63.68% # Class of executed instruction
system.cpu.op_class::SimdMultAcc                    0      0.00%     63.68% # Class of executed instruction
system.cpu.op_class::SimdShift                    129      0.00%     63.68% # Class of executed instruction
system.cpu.op_class::SimdShiftAcc                   0      0.00%     63.68% # Class of executed instruction
system.cpu.op_class::SimdSqrt                       0      0.00%     63.68% # Class of executed instruction
system.cpu.op_class::SimdFloatAdd                   0      0.00%     63.68% # Class of executed instruction
system.cpu.op_class::SimdFloatAlu                   0      0.00%     63.68% # Class of executed instruction
system.cpu.op_class::SimdFloatCmp                   0      0.00%     63.68% # Class of executed instruction
system.cpu.op_class::SimdFloatCvt                   0      0.00%     63.68% # Class of executed instruction
system.cpu.op_class::SimdFloatDiv                   0      0.00%     63.68% # Class of executed instruction
system.cpu.op_class::SimdFloatMisc                  0      0.00%     63.68% # Class of executed instruction
system.cpu.op_class::SimdFloatMult                  0      0.00%     63.68% # Class of executed instruction
system.cpu.op_class::SimdFloatMultAcc               0      0.00%     63.68% # Class of executed instruction
system.cpu.op_class::SimdFloatSqrt                  0      0.00%     63.68% # Class of executed instruction
system.cpu.op_class::MemRead                 20997411     28.43%     92.11% # Class of executed instruction
system.cpu.op_class::MemWrite                 5824085      7.89%    100.00% # Class of executed instruction
system.cpu.op_class::FloatMemRead                 972      0.00%    100.00% # Class of executed instruction
system.cpu.op_class::FloatMemWrite                690      0.00%    100.00% # Class of executed instruction
system.cpu.op_class::IprAccess                      0      0.00%    100.00% # Class of executed instruction
system.cpu.op_class::InstPrefetch                   0      0.00%    100.00% # Class of executed instruction
system.cpu.op_class::total                   73858728                       # Class of executed instruction
system.cpu.dcache.tags.pwrStateResidencyTicks::UNDEFINED  97099047000                       # Cumulative time (in ticks) in various power states
system.cpu.dcache.tags.tagsinuse            63.992108                       # Cycle average of tags in use
system.cpu.dcache.tags.total_refs            26823167                       # Total number of references to valid blocks.
system.cpu.dcache.tags.sampled_refs            280271                       # Sample count of references to valid blocks.
system.cpu.dcache.tags.avg_refs             95.704397                       # Average number of references to valid blocks.
system.cpu.dcache.tags.warmup_cycle            759000                       # Cycle when the warmup percentage was hit.
system.cpu.dcache.tags.occ_blocks::cpu.data    63.992108                       # Average occupied blocks per requestor
system.cpu.dcache.tags.occ_percent::cpu.data     0.999877                       # Average percentage of cache occupancy
system.cpu.dcache.tags.occ_percent::total     0.999877                       # Average percentage of cache occupancy
system.cpu.dcache.tags.occ_task_id_blocks::1024           64                       # Occupied blocks per task id
system.cpu.dcache.tags.age_task_id_blocks_1024::0           29                       # Occupied blocks per task id
system.cpu.dcache.tags.age_task_id_blocks_1024::2            3                       # Occupied blocks per task id
system.cpu.dcache.tags.age_task_id_blocks_1024::3            2                       # Occupied blocks per task id
system.cpu.dcache.tags.age_task_id_blocks_1024::4           30                       # Occupied blocks per task id
system.cpu.dcache.tags.occ_task_id_percent::1024            1                       # Percentage of cache occupancy per task id
system.cpu.dcache.tags.tag_accesses          53926605                       # Number of tag accesses
system.cpu.dcache.tags.data_accesses         53926605                       # Number of data accesses
system.cpu.dcache.pwrStateResidencyTicks::UNDEFINED  97099047000                       # Cumulative time (in ticks) in various power states
system.cpu.dcache.ReadReq_hits::cpu.data     20748259                       # number of ReadReq hits
system.cpu.dcache.ReadReq_hits::total        20748259                       # number of ReadReq hits
system.cpu.dcache.WriteReq_hits::cpu.data      5737953                       # number of WriteReq hits
system.cpu.dcache.WriteReq_hits::total        5737953                       # number of WriteReq hits
system.cpu.dcache.demand_hits::cpu.data      26486212                       # number of demand (read+write) hits
system.cpu.dcache.demand_hits::total         26486212                       # number of demand (read+write) hits
system.cpu.dcache.overall_hits::cpu.data     26486212                       # number of overall hits
system.cpu.dcache.overall_hits::total        26486212                       # number of overall hits
system.cpu.dcache.ReadReq_misses::cpu.data       250133                       # number of ReadReq misses
system.cpu.dcache.ReadReq_misses::total        250133                       # number of ReadReq misses
system.cpu.dcache.WriteReq_misses::cpu.data        86822                       # number of WriteReq misses
system.cpu.dcache.WriteReq_misses::total        86822                       # number of WriteReq misses
system.cpu.dcache.demand_misses::cpu.data       336955                       # number of demand (read+write) misses
system.cpu.dcache.demand_misses::total         336955                       # number of demand (read+write) misses
system.cpu.dcache.overall_misses::cpu.data       336955                       # number of overall misses
system.cpu.dcache.overall_misses::total        336955                       # number of overall misses
system.cpu.dcache.ReadReq_miss_latency::cpu.data   6100751000                       # number of ReadReq miss cycles
system.cpu.dcache.ReadReq_miss_latency::total   6100751000                       # number of ReadReq miss cycles
system.cpu.dcache.WriteReq_miss_latency::cpu.data   2546202000                       # number of WriteReq miss cycles
system.cpu.dcache.WriteReq_miss_latency::total   2546202000                       # number of WriteReq miss cycles
system.cpu.dcache.demand_miss_latency::cpu.data   8646953000                       # number of demand (read+write) miss cycles
system.cpu.dcache.demand_miss_latency::total   8646953000                       # number of demand (read+write) miss cycles
system.cpu.dcache.overall_miss_latency::cpu.data   8646953000                       # number of overall miss cycles
system.cpu.dcache.overall_miss_latency::total   8646953000                       # number of overall miss cycles
system.cpu.dcache.ReadReq_accesses::cpu.data     20998392                       # number of ReadReq accesses(hits+misses)
system.cpu.dcache.ReadReq_accesses::total     20998392                       # number of ReadReq accesses(hits+misses)
system.cpu.dcache.WriteReq_accesses::cpu.data      5824775                       # number of WriteReq accesses(hits+misses)
system.cpu.dcache.WriteReq_accesses::total      5824775                       # number of WriteReq accesses(hits+misses)
system.cpu.dcache.demand_accesses::cpu.data     26823167                       # number of demand (read+write) accesses
system.cpu.dcache.demand_accesses::total     26823167                       # number of demand (read+write) accesses
system.cpu.dcache.overall_accesses::cpu.data     26823167                       # number of overall (read+write) accesses
system.cpu.dcache.overall_accesses::total     26823167                       # number of overall (read+write) accesses
system.cpu.dcache.ReadReq_miss_rate::cpu.data     0.011912                       # miss rate for ReadReq accesses
system.cpu.dcache.ReadReq_miss_rate::total     0.011912                       # miss rate for ReadReq accesses
system.cpu.dcache.WriteReq_miss_rate::cpu.data     0.014906                       # miss rate for WriteReq accesses
system.cpu.dcache.WriteReq_miss_rate::total     0.014906                       # miss rate for WriteReq accesses
system.cpu.dcache.demand_miss_rate::cpu.data     0.012562                       # miss rate for demand accesses
system.cpu.dcache.demand_miss_rate::total     0.012562                       # miss rate for demand accesses
system.cpu.dcache.overall_miss_rate::cpu.data     0.012562                       # miss rate for overall accesses
system.cpu.dcache.overall_miss_rate::total     0.012562                       # miss rate for overall accesses
system.cpu.dcache.ReadReq_avg_miss_latency::cpu.data 24390.028505                       # average ReadReq miss latency
system.cpu.dcache.ReadReq_avg_miss_latency::total 24390.028505                       # average ReadReq miss latency
system.cpu.dcache.WriteReq_avg_miss_latency::cpu.data 29326.691392                       # average WriteReq miss latency
system.cpu.dcache.WriteReq_avg_miss_latency::total 29326.691392                       # average WriteReq miss latency
system.cpu.dcache.demand_avg_miss_latency::cpu.data 25662.040925                       # average overall miss latency
system.cpu.dcache.demand_avg_miss_latency::total 25662.040925                       # average overall miss latency
system.cpu.dcache.overall_avg_miss_latency::cpu.data 25662.040925                       # average overall miss latency
system.cpu.dcache.overall_avg_miss_latency::total 25662.040925                       # average overall miss latency
system.cpu.dcache.blocked_cycles::no_mshrs            0                       # number of cycles access was blocked
system.cpu.dcache.blocked_cycles::no_targets            0                       # number of cycles access was blocked
system.cpu.dcache.blocked::no_mshrs                 0                       # number of cycles access was blocked
system.cpu.dcache.blocked::no_targets               0                       # number of cycles access was blocked
system.cpu.dcache.avg_blocked_cycles::no_mshrs          nan                       # average number of cycles each access was blocked
system.cpu.dcache.avg_blocked_cycles::no_targets          nan                       # average number of cycles each access was blocked
system.cpu.dcache.writebacks::writebacks       205309                       # number of writebacks
system.cpu.dcache.writebacks::total            205309                       # number of writebacks
system.cpu.dcache.ReadReq_mshr_misses::cpu.data       250133                       # number of ReadReq MSHR misses
system.cpu.dcache.ReadReq_mshr_misses::total       250133                       # number of ReadReq MSHR misses
system.cpu.dcache.WriteReq_mshr_misses::cpu.data        86822                       # number of WriteReq MSHR misses
system.cpu.dcache.WriteReq_mshr_misses::total        86822                       # number of WriteReq MSHR misses
system.cpu.dcache.demand_mshr_misses::cpu.data       336955                       # number of demand (read+write) MSHR misses
system.cpu.dcache.demand_mshr_misses::total       336955                       # number of demand (read+write) MSHR misses
system.cpu.dcache.overall_mshr_misses::cpu.data       336955                       # number of overall MSHR misses
system.cpu.dcache.overall_mshr_misses::total       336955                       # number of overall MSHR misses
system.cpu.dcache.ReadReq_mshr_miss_latency::cpu.data   5850618000                       # number of ReadReq MSHR miss cycles
system.cpu.dcache.ReadReq_mshr_miss_latency::total   5850618000                       # number of ReadReq MSHR miss cycles
system.cpu.dcache.WriteReq_mshr_miss_latency::cpu.data   2459380000                       # number of WriteReq MSHR miss cycles
system.cpu.dcache.WriteReq_mshr_miss_latency::total   2459380000                       # number of WriteReq MSHR miss cycles
system.cpu.dcache.demand_mshr_miss_latency::cpu.data   8309998000                       # number of demand (read+write) MSHR miss cycles
system.cpu.dcache.demand_mshr_miss_latency::total   8309998000                       # number of demand (read+write) MSHR miss cycles
system.cpu.dcache.overall_mshr_miss_latency::cpu.data   8309998000                       # number of overall MSHR miss cycles
system.cpu.dcache.overall_mshr_miss_latency::total   8309998000                       # number of overall MSHR miss cycles
system.cpu.dcache.ReadReq_mshr_miss_rate::cpu.data     0.011912                       # mshr miss rate for ReadReq accesses
system.cpu.dcache.ReadReq_mshr_miss_rate::total     0.011912                       # mshr miss rate for ReadReq accesses
system.cpu.dcache.WriteReq_mshr_miss_rate::cpu.data     0.014906                       # mshr miss rate for WriteReq accesses
system.cpu.dcache.WriteReq_mshr_miss_rate::total     0.014906                       # mshr miss rate for WriteReq accesses
system.cpu.dcache.demand_mshr_miss_rate::cpu.data     0.012562                       # mshr miss rate for demand accesses
system.cpu.dcache.demand_mshr_miss_rate::total     0.012562                       # mshr miss rate for demand accesses
system.cpu.dcache.overall_mshr_miss_rate::cpu.data     0.012562                       # mshr miss rate for overall accesses
system.cpu.dcache.overall_mshr_miss_rate::total     0.012562                       # mshr miss rate for overall accesses
system.cpu.dcache.ReadReq_avg_mshr_miss_latency::cpu.data 23390.028505                       # average ReadReq mshr miss latency
system.cpu.dcache.ReadReq_avg_mshr_miss_latency::total 23390.028505                       # average ReadReq mshr miss latency
system.cpu.dcache.WriteReq_avg_mshr_miss_latency::cpu.data 28326.691392                       # average WriteReq mshr miss latency
system.cpu.dcache.WriteReq_avg_mshr_miss_latency::total 28326.691392                       # average WriteReq mshr miss latency
system.cpu.dcache.demand_avg_mshr_miss_latency::cpu.data 24662.040925                       # average overall mshr miss latency
system.cpu.dcache.demand_avg_mshr_miss_latency::total 24662.040925                       # average overall mshr miss latency
system.cpu.dcache.overall_avg_mshr_miss_latency::cpu.data 24662.040925                       # average overall mshr miss latency
system.cpu.dcache.overall_avg_mshr_miss_latency::total 24662.040925                       # average overall mshr miss latency
system.cpu.dcache.replacements                 280207                       # number of replacements
system.cpu.dtb_walker_cache.tags.pwrStateResidencyTicks::UNDEFINED  97099047000                       # Cumulative time (in ticks) in various power states
system.cpu.dtb_walker_cache.tags.tagsinuse            0                       # Cycle average of tags in use
system.cpu.dtb_walker_cache.tags.total_refs            0                       # Total number of references to valid blocks.
system.cpu.dtb_walker_cache.tags.sampled_refs            0                       # Sample count of references to valid blocks.
system.cpu.dtb_walker_cache.tags.avg_refs          nan                       # Average number of references to valid blocks.
system.cpu.dtb_walker_cache.tags.warmup_cycle            0                       # Cycle when the warmup percentage was hit.
system.cpu.dtb_walker_cache.tags.tag_accesses            0                       # Number of tag accesses
system.cpu.dtb_walker_cache.tags.data_accesses            0                       # Number of data accesses
system.cpu.dtb_walker_cache.pwrStateResidencyTicks::UNDEFINED  97099047000                       # Cumulative time (in ticks) in various power states
system.cpu.dtb_walker_cache.blocked_cycles::no_mshrs            0                       # number of cycles access was blocked
system.cpu.dtb_walker_cache.blocked_cycles::no_targets            0                       # number of cycles access was blocked
system.cpu.dtb_walker_cache.blocked::no_mshrs            0                       # number of cycles access was blocked
system.cpu.dtb_walker_cache.blocked::no_targets            0                       # number of cycles access was blocked
system.cpu.dtb_walker_cache.avg_blocked_cycles::no_mshrs          nan                       # average number of cycles each access was blocked
system.cpu.dtb_walker_cache.avg_blocked_cycles::no_targets          nan                       # average number of cycles each access was blocked
system.cpu.dtb_walker_cache.replacements            0                       # number of replacements
system.cpu.icache.tags.pwrStateResidencyTicks::UNDEFINED  97099047000                       # Cumulative time (in ticks) in various power states
system.cpu.icache.tags.tagsinuse            63.985982                       # Cycle average of tags in use
system.cpu.icache.tags.total_refs            59428407                       # Total number of references to valid blocks.
system.cpu.icache.tags.sampled_refs            202781                       # Sample count of references to valid blocks.
system.cpu.icache.tags.avg_refs            293.066939                       # Average number of references to valid blocks.
system.cpu.icache.tags.warmup_cycle            439000                       # Cycle when the warmup percentage was hit.
system.cpu.icache.tags.occ_blocks::cpu.inst    63.985982                       # Average occupied blocks per requestor
system.cpu.icache.tags.occ_percent::cpu.inst     0.999781                       # Average percentage of cache occupancy
system.cpu.icache.tags.occ_percent::total     0.999781                       # Average percentage of cache occupancy
system.cpu.icache.tags.occ_task_id_blocks::1024           64                       # Occupied blocks per task id
system.cpu.icache.tags.age_task_id_blocks_1024::0           31                       # Occupied blocks per task id
system.cpu.icache.tags.age_task_id_blocks_1024::4           33                       # Occupied blocks per task id
system.cpu.icache.tags.occ_task_id_percent::1024            1                       # Percentage of cache occupancy per task id
system.cpu.icache.tags.tag_accesses         119059595                       # Number of tag accesses
system.cpu.icache.tags.data_accesses        119059595                       # Number of data accesses
system.cpu.icache.pwrStateResidencyTicks::UNDEFINED  97099047000                       # Cumulative time (in ticks) in various power states
system.cpu.icache.ReadReq_hits::cpu.inst     59225626                       # number of ReadReq hits
system.cpu.icache.ReadReq_hits::total        59225626                       # number of ReadReq hits
system.cpu.icache.demand_hits::cpu.inst      59225626                       # number of demand (read+write) hits
system.cpu.icache.demand_hits::total         59225626                       # number of demand (read+write) hits
system.cpu.icache.overall_hits::cpu.inst     59225626                       # number of overall hits
system.cpu.icache.overall_hits::total        59225626                       # number of overall hits
system.cpu.icache.ReadReq_misses::cpu.inst       202781                       # number of ReadReq misses
system.cpu.icache.ReadReq_misses::total        202781                       # number of ReadReq misses
system.cpu.icache.demand_misses::cpu.inst       202781                       # number of demand (read+write) misses
system.cpu.icache.demand_misses::total         202781                       # number of demand (read+write) misses
system.cpu.icache.overall_misses::cpu.inst       202781                       # number of overall misses
system.cpu.icache.overall_misses::total        202781                       # number of overall misses
system.cpu.icache.ReadReq_miss_latency::cpu.inst   2740600500                       # number of ReadReq miss cycles
system.cpu.icache.ReadReq_miss_latency::total   2740600500                       # number of ReadReq miss cycles
system.cpu.icache.demand_miss_latency::cpu.inst   2740600500                       # number of demand (read+write) miss cycles
system.cpu.icache.demand_miss_latency::total   2740600500                       # number of demand (read+write) miss cycles
system.cpu.icache.overall_miss_latency::cpu.inst   2740600500                       # number of overall miss cycles
system.cpu.icache.overall_miss_latency::total   2740600500                       # number of overall miss cycles
system.cpu.icache.ReadReq_accesses::cpu.inst     59428407                       # number of ReadReq accesses(hits+misses)
system.cpu.icache.ReadReq_accesses::total     59428407                       # number of ReadReq accesses(hits+misses)
system.cpu.icache.demand_accesses::cpu.inst     59428407                       # number of demand (read+write) accesses
system.cpu.icache.demand_accesses::total     59428407                       # number of demand (read+write) accesses
system.cpu.icache.overall_accesses::cpu.inst     59428407                       # number of overall (read+write) accesses
system.cpu.icache.overall_accesses::total     59428407                       # number of overall (read+write) accesses
system.cpu.icache.ReadReq_miss_rate::cpu.inst     0.003412                       # miss rate for ReadReq accesses
system.cpu.icache.ReadReq_miss_rate::total     0.003412                       # miss rate for ReadReq accesses
system.cpu.icache.demand_miss_rate::cpu.inst     0.003412                       # miss rate for demand accesses
system.cpu.icache.demand_miss_rate::total     0.003412                       # miss rate for demand accesses
system.cpu.icache.overall_miss_rate::cpu.inst     0.003412                       # miss rate for overall accesses
system.cpu.icache.overall_miss_rate::total     0.003412                       # miss rate for overall accesses
system.cpu.icache.ReadReq_avg_miss_latency::cpu.inst 13515.075377                       # average ReadReq miss latency
system.cpu.icache.ReadReq_avg_miss_latency::total 13515.075377                       # average ReadReq miss latency
system.cpu.icache.demand_avg_miss_latency::cpu.inst 13515.075377                       # average overall miss latency
system.cpu.icache.demand_avg_miss_latency::total 13515.075377                       # average overall miss latency
system.cpu.icache.overall_avg_miss_latency::cpu.inst 13515.075377                       # average overall miss latency
system.cpu.icache.overall_avg_miss_latency::total 13515.075377                       # average overall miss latency
system.cpu.icache.blocked_cycles::no_mshrs            0                       # number of cycles access was blocked
system.cpu.icache.blocked_cycles::no_targets            0                       # number of cycles access was blocked
system.cpu.icache.blocked::no_mshrs                 0                       # number of cycles access was blocked
system.cpu.icache.blocked::no_targets               0                       # number of cycles access was blocked
system.cpu.icache.avg_blocked_cycles::no_mshrs          nan                       # average number of cycles each access was blocked
system.cpu.icache.avg_blocked_cycles::no_targets          nan                       # average number of cycles each access was blocked
system.cpu.icache.writebacks::writebacks       202717                       # number of writebacks
system.cpu.icache.writebacks::total            202717                       # number of writebacks
system.cpu.icache.ReadReq_mshr_misses::cpu.inst       202781                       # number of ReadReq MSHR misses
system.cpu.icache.ReadReq_mshr_misses::total       202781                       # number of ReadReq MSHR misses
system.cpu.icache.demand_mshr_misses::cpu.inst       202781                       # number of demand (read+write) MSHR misses
system.cpu.icache.demand_mshr_misses::total       202781                       # number of demand (read+write) MSHR misses
system.cpu.icache.overall_mshr_misses::cpu.inst       202781                       # number of overall MSHR misses
system.cpu.icache.overall_mshr_misses::total       202781                       # number of overall MSHR misses
system.cpu.icache.ReadReq_mshr_miss_latency::cpu.inst   2537819500                       # number of ReadReq MSHR miss cycles
system.cpu.icache.ReadReq_mshr_miss_latency::total   2537819500                       # number of ReadReq MSHR miss cycles
system.cpu.icache.demand_mshr_miss_latency::cpu.inst   2537819500                       # number of demand (read+write) MSHR miss cycles
system.cpu.icache.demand_mshr_miss_latency::total   2537819500                       # number of demand (read+write) MSHR miss cycles
system.cpu.icache.overall_mshr_miss_latency::cpu.inst   2537819500                       # number of overall MSHR miss cycles
system.cpu.icache.overall_mshr_miss_latency::total   2537819500                       # number of overall MSHR miss cycles
system.cpu.icache.ReadReq_mshr_miss_rate::cpu.inst     0.003412                       # mshr miss rate for ReadReq accesses
system.cpu.icache.ReadReq_mshr_miss_rate::total     0.003412                       # mshr miss rate for ReadReq accesses
system.cpu.icache.demand_mshr_miss_rate::cpu.inst     0.003412                       # mshr miss rate for demand accesses
system.cpu.icache.demand_mshr_miss_rate::total     0.003412                       # mshr miss rate for demand accesses
system.cpu.icache.overall_mshr_miss_rate::cpu.inst     0.003412                       # mshr miss rate for overall accesses
system.cpu.icache.overall_mshr_miss_rate::total     0.003412                       # mshr miss rate for overall accesses
system.cpu.icache.ReadReq_avg_mshr_miss_latency::cpu.inst 12515.075377                       # average ReadReq mshr miss latency
system.cpu.icache.ReadReq_avg_mshr_miss_latency::total 12515.075377                       # average ReadReq mshr miss latency
system.cpu.icache.demand_avg_mshr_miss_latency::cpu.inst 12515.075377                       # average overall mshr miss latency
system.cpu.icache.demand_avg_mshr_miss_latency::total 12515.075377                       # average overall mshr miss latency
system.cpu.icache.overall_avg_mshr_miss_latency::cpu.inst 12515.075377                       # average overall mshr miss latency
system.cpu.icache.overall_avg_mshr_miss_latency::total 12515.075377                       # average overall mshr miss latency
system.cpu.icache.replacements                 202717                       # number of replacements
system.cpu.itb_walker_cache.tags.pwrStateResidencyTicks::UNDEFINED  97099047000                       # Cumulative time (in ticks) in various power states
system.cpu.itb_walker_cache.tags.tagsinuse            0                       # Cycle average of tags in use
system.cpu.itb_walker_cache.tags.total_refs            0                       # Total number of references to valid blocks.
system.cpu.itb_walker_cache.tags.sampled_refs            0                       # Sample count of references to valid blocks.
system.cpu.itb_walker_cache.tags.avg_refs          nan                       # Average number of references to valid blocks.
system.cpu.itb_walker_cache.tags.warmup_cycle            0                       # Cycle when the warmup percentage was hit.
system.cpu.itb_walker_cache.tags.tag_accesses            0                       # Number of tag accesses
system.cpu.itb_walker_cache.tags.data_accesses            0                       # Number of data accesses
system.cpu.itb_walker_cache.pwrStateResidencyTicks::UNDEFINED  97099047000                       # Cumulative time (in ticks) in various power states
system.cpu.itb_walker_cache.blocked_cycles::no_mshrs            0                       # number of cycles access was blocked
system.cpu.itb_walker_cache.blocked_cycles::no_targets            0                       # number of cycles access was blocked
system.cpu.itb_walker_cache.blocked::no_mshrs            0                       # number of cycles access was blocked
system.cpu.itb_walker_cache.blocked::no_targets            0                       # number of cycles access was blocked
system.cpu.itb_walker_cache.avg_blocked_cycles::no_mshrs          nan                       # average number of cycles each access was blocked
system.cpu.itb_walker_cache.avg_blocked_cycles::no_targets          nan                       # average number of cycles each access was blocked
system.cpu.itb_walker_cache.replacements            0                       # number of replacements
system.l2.tags.pwrStateResidencyTicks::UNDEFINED  97099047000                       # Cumulative time (in ticks) in various power states
system.l2.tags.tagsinuse                   255.934083                       # Cycle average of tags in use
system.l2.tags.total_refs                      897257                       # Total number of references to valid blocks.
system.l2.tags.sampled_refs                    547639                       # Sample count of references to valid blocks.
system.l2.tags.avg_refs                      1.638410                       # Average number of references to valid blocks.
system.l2.tags.warmup_cycle                    428500                       # Cycle when the warmup percentage was hit.
system.l2.tags.occ_blocks::writebacks       98.001715                       # Average occupied blocks per requestor
system.l2.tags.occ_blocks::cpu.inst         36.297565                       # Average occupied blocks per requestor
system.l2.tags.occ_blocks::cpu.data        121.634803                       # Average occupied blocks per requestor
system.l2.tags.occ_percent::writebacks       0.382819                       # Average percentage of cache occupancy
system.l2.tags.occ_percent::cpu.inst         0.141787                       # Average percentage of cache occupancy
system.l2.tags.occ_percent::cpu.data         0.475136                       # Average percentage of cache occupancy
system.l2.tags.occ_percent::total            0.999743                       # Average percentage of cache occupancy
system.l2.tags.occ_task_id_blocks::1024           256                       # Occupied blocks per task id
system.l2.tags.age_task_id_blocks_1024::0           32                       # Occupied blocks per task id
system.l2.tags.age_task_id_blocks_1024::3            1                       # Occupied blocks per task id
system.l2.tags.age_task_id_blocks_1024::4          223                       # Occupied blocks per task id
system.l2.tags.occ_task_id_percent::1024            1                       # Percentage of cache occupancy per task id
system.l2.tags.tag_accesses                   8728919                       # Number of tag accesses
system.l2.tags.data_accesses                  8728919                       # Number of data accesses
system.l2.pwrStateResidencyTicks::UNDEFINED  97099047000                       # Cumulative time (in ticks) in various power states
system.l2.WritebackDirty_hits::writebacks       205309                       # number of WritebackDirty hits
system.l2.WritebackDirty_hits::total           205309                       # number of WritebackDirty hits
system.l2.WritebackClean_hits::writebacks       202717                       # number of WritebackClean hits
system.l2.WritebackClean_hits::total           202717                       # number of WritebackClean hits
system.l2.UpgradeReq_hits::cpu.data              5460                       # number of UpgradeReq hits
system.l2.UpgradeReq_hits::total                 5460                       # number of UpgradeReq hits
system.l2.ReadExReq_hits::cpu.data              19518                       # number of ReadExReq hits
system.l2.ReadExReq_hits::total                 19518                       # number of ReadExReq hits
system.l2.ReadCleanReq_hits::cpu.inst          201221                       # number of ReadCleanReq hits
system.l2.ReadCleanReq_hits::total             201221                       # number of ReadCleanReq hits
system.l2.ReadSharedReq_hits::cpu.data         118888                       # number of ReadSharedReq hits
system.l2.ReadSharedReq_hits::total            118888                       # number of ReadSharedReq hits
system.l2.demand_hits::cpu.inst                201221                       # number of demand (read+write) hits
system.l2.demand_hits::cpu.data                138406                       # number of demand (read+write) hits
system.l2.demand_hits::total                   339627                       # number of demand (read+write) hits
system.l2.overall_hits::cpu.inst               201221                       # number of overall hits
system.l2.overall_hits::cpu.data               138406                       # number of overall hits
system.l2.overall_hits::total                  339627                       # number of overall hits
system.l2.UpgradeReq_misses::cpu.data           51224                       # number of UpgradeReq misses
system.l2.UpgradeReq_misses::total              51224                       # number of UpgradeReq misses
system.l2.ReadExReq_misses::cpu.data            10620                       # number of ReadExReq misses
system.l2.ReadExReq_misses::total               10620                       # number of ReadExReq misses
system.l2.ReadCleanReq_misses::cpu.inst          1560                       # number of ReadCleanReq misses
system.l2.ReadCleanReq_misses::total             1560                       # number of ReadCleanReq misses
system.l2.ReadSharedReq_misses::cpu.data       131245                       # number of ReadSharedReq misses
system.l2.ReadSharedReq_misses::total          131245                       # number of ReadSharedReq misses
system.l2.demand_misses::cpu.inst                1560                       # number of demand (read+write) misses
system.l2.demand_misses::cpu.data              141865                       # number of demand (read+write) misses
system.l2.demand_misses::total                 143425                       # number of demand (read+write) misses
system.l2.overall_misses::cpu.inst               1560                       # number of overall misses
system.l2.overall_misses::cpu.data             141865                       # number of overall misses
system.l2.overall_misses::total                143425                       # number of overall misses
system.l2.ReadExReq_miss_latency::cpu.data    453309500                       # number of ReadExReq miss cycles
system.l2.ReadExReq_miss_latency::total     453309500                       # number of ReadExReq miss cycles
system.l2.ReadCleanReq_miss_latency::cpu.inst    120807000                       # number of ReadCleanReq miss cycles
system.l2.ReadCleanReq_miss_latency::total    120807000                       # number of ReadCleanReq miss cycles
system.l2.ReadSharedReq_miss_latency::cpu.data   4227014000                       # number of ReadSharedReq miss cycles
system.l2.ReadSharedReq_miss_latency::total   4227014000                       # number of ReadSharedReq miss cycles
system.l2.demand_miss_latency::cpu.inst     120807000                       # number of demand (read+write) miss cycles
system.l2.demand_miss_latency::cpu.data    4680323500                       # number of demand (read+write) miss cycles
system.l2.demand_miss_latency::total       4801130500                       # number of demand (read+write) miss cycles
system.l2.overall_miss_latency::cpu.inst    120807000                       # number of overall miss cycles
system.l2.overall_miss_latency::cpu.data   4680323500                       # number of overall miss cycles
system.l2.overall_miss_latency::total      4801130500                       # number of overall miss cycles
system.l2.WritebackDirty_accesses::writebacks       205309                       # number of WritebackDirty accesses(hits+misses)
system.l2.WritebackDirty_accesses::total       205309                       # number of WritebackDirty accesses(hits+misses)
system.l2.WritebackClean_accesses::writebacks       202717                       # number of WritebackClean accesses(hits+misses)
system.l2.WritebackClean_accesses::total       202717                       # number of WritebackClean accesses(hits+misses)
system.l2.UpgradeReq_accesses::cpu.data         56684                       # number of UpgradeReq accesses(hits+misses)
system.l2.UpgradeReq_accesses::total            56684                       # number of UpgradeReq accesses(hits+misses)
system.l2.ReadExReq_accesses::cpu.data          30138                       # number of ReadExReq accesses(hits+misses)
system.l2.ReadExReq_accesses::total             30138                       # number of ReadExReq accesses(hits+misses)
system.l2.ReadCleanReq_accesses::cpu.inst       202781                       # number of ReadCleanReq accesses(hits+misses)
system.l2.ReadCleanReq_accesses::total         202781                       # number of ReadCleanReq accesses(hits+misses)
system.l2.ReadSharedReq_accesses::cpu.data       250133                       # number of ReadSharedReq accesses(hits+misses)
system.l2.ReadSharedReq_accesses::total        250133                       # number of ReadSharedReq accesses(hits+misses)
system.l2.demand_accesses::cpu.inst            202781                       # number of demand (read+write) accesses
system.l2.demand_accesses::cpu.data            280271                       # number of demand (read+write) accesses
system.l2.demand_accesses::total               483052                       # number of demand (read+write) accesses
system.l2.overall_accesses::cpu.inst           202781                       # number of overall (read+write) accesses
system.l2.overall_accesses::cpu.data           280271                       # number of overall (read+write) accesses
system.l2.overall_accesses::total              483052                       # number of overall (read+write) accesses
system.l2.UpgradeReq_miss_rate::cpu.data     0.903677                       # miss rate for UpgradeReq accesses
system.l2.UpgradeReq_miss_rate::total        0.903677                       # miss rate for UpgradeReq accesses
system.l2.ReadExReq_miss_rate::cpu.data      0.352379                       # miss rate for ReadExReq accesses
system.l2.ReadExReq_miss_rate::total         0.352379                       # miss rate for ReadExReq accesses
system.l2.ReadCleanReq_miss_rate::cpu.inst     0.007693                       # miss rate for ReadCleanReq accesses
system.l2.ReadCleanReq_miss_rate::total      0.007693                       # miss rate for ReadCleanReq accesses
system.l2.ReadSharedReq_miss_rate::cpu.data     0.524701                       # miss rate for ReadSharedReq accesses
system.l2.ReadSharedReq_miss_rate::total     0.524701                       # miss rate for ReadSharedReq accesses
system.l2.demand_miss_rate::cpu.inst         0.007693                       # miss rate for demand accesses
system.l2.demand_miss_rate::cpu.data         0.506171                       # miss rate for demand accesses
system.l2.demand_miss_rate::total            0.296914                       # miss rate for demand accesses
system.l2.overall_miss_rate::cpu.inst        0.007693                       # miss rate for overall accesses
system.l2.overall_miss_rate::cpu.data        0.506171                       # miss rate for overall accesses
system.l2.overall_miss_rate::total           0.296914                       # miss rate for overall accesses
system.l2.ReadExReq_avg_miss_latency::cpu.data 42684.510358                       # average ReadExReq miss latency
system.l2.ReadExReq_avg_miss_latency::total 42684.510358                       # average ReadExReq miss latency
system.l2.ReadCleanReq_avg_miss_latency::cpu.inst 77440.384615                       # average ReadCleanReq miss latency
system.l2.ReadCleanReq_avg_miss_latency::total 77440.384615                       # average ReadCleanReq miss latency
system.l2.ReadSharedReq_avg_miss_latency::cpu.data 32207.047888                       # average ReadSharedReq miss latency
system.l2.ReadSharedReq_avg_miss_latency::total 32207.047888                       # average ReadSharedReq miss latency
system.l2.demand_avg_miss_latency::cpu.inst 77440.384615                       # average overall miss latency
system.l2.demand_avg_miss_latency::cpu.data 32991.389701                       # average overall miss latency
system.l2.demand_avg_miss_latency::total 33474.850967                       # average overall miss latency
system.l2.overall_avg_miss_latency::cpu.inst 77440.384615                       # average overall miss latency
system.l2.overall_avg_miss_latency::cpu.data 32991.389701                       # average overall miss latency
system.l2.overall_avg_miss_latency::total 33474.850967                       # average overall miss latency
system.l2.blocked_cycles::no_mshrs                  0                       # number of cycles access was blocked
system.l2.blocked_cycles::no_targets                0                       # number of cycles access was blocked
system.l2.blocked::no_mshrs                         0                       # number of cycles access was blocked
system.l2.blocked::no_targets                       0                       # number of cycles access was blocked
system.l2.avg_blocked_cycles::no_mshrs            nan                       # average number of cycles each access was blocked
system.l2.avg_blocked_cycles::no_targets          nan                       # average number of cycles each access was blocked
system.l2.writebacks::writebacks               130307                       # number of writebacks
system.l2.writebacks::total                    130307                       # number of writebacks
system.l2.CleanEvict_mshr_misses::writebacks        74179                       # number of CleanEvict MSHR misses
system.l2.CleanEvict_mshr_misses::total         74179                       # number of CleanEvict MSHR misses
system.l2.UpgradeReq_mshr_misses::cpu.data        51224                       # number of UpgradeReq MSHR misses
system.l2.UpgradeReq_mshr_misses::total         51224                       # number of UpgradeReq MSHR misses
system.l2.ReadExReq_mshr_misses::cpu.data        10620                       # number of ReadExReq MSHR misses
system.l2.ReadExReq_mshr_misses::total          10620                       # number of ReadExReq MSHR misses
system.l2.ReadCleanReq_mshr_misses::cpu.inst         1560                       # number of ReadCleanReq MSHR misses
system.l2.ReadCleanReq_mshr_misses::total         1560                       # number of ReadCleanReq MSHR misses
system.l2.ReadSharedReq_mshr_misses::cpu.data       131245                       # number of ReadSharedReq MSHR misses
system.l2.ReadSharedReq_mshr_misses::total       131245                       # number of ReadSharedReq MSHR misses
system.l2.demand_mshr_misses::cpu.inst           1560                       # number of demand (read+write) MSHR misses
system.l2.demand_mshr_misses::cpu.data         141865                       # number of demand (read+write) MSHR misses
system.l2.demand_mshr_misses::total            143425                       # number of demand (read+write) MSHR misses
system.l2.overall_mshr_misses::cpu.inst          1560                       # number of overall MSHR misses
system.l2.overall_mshr_misses::cpu.data        141865                       # number of overall MSHR misses
system.l2.overall_mshr_misses::total           143425                       # number of overall MSHR misses
system.l2.UpgradeReq_mshr_miss_latency::cpu.data   1101316000                       # number of UpgradeReq MSHR miss cycles
system.l2.UpgradeReq_mshr_miss_latency::total   1101316000                       # number of UpgradeReq MSHR miss cycles
system.l2.ReadExReq_mshr_miss_latency::cpu.data    347109500                       # number of ReadExReq MSHR miss cycles
system.l2.ReadExReq_mshr_miss_latency::total    347109500                       # number of ReadExReq MSHR miss cycles
system.l2.ReadCleanReq_mshr_miss_latency::cpu.inst    105207000                       # number of ReadCleanReq MSHR miss cycles
system.l2.ReadCleanReq_mshr_miss_latency::total    105207000                       # number of ReadCleanReq MSHR miss cycles
system.l2.ReadSharedReq_mshr_miss_latency::cpu.data   2914564000                       # number of ReadSharedReq MSHR miss cycles
system.l2.ReadSharedReq_mshr_miss_latency::total   2914564000                       # number of ReadSharedReq MSHR miss cycles
system.l2.demand_mshr_miss_latency::cpu.inst    105207000                       # number of demand (read+write) MSHR miss cycles
system.l2.demand_mshr_miss_latency::cpu.data   3261673500                       # number of demand (read+write) MSHR miss cycles
system.l2.demand_mshr_miss_latency::total   3366880500                       # number of demand (read+write) MSHR miss cycles
system.l2.overall_mshr_miss_latency::cpu.inst    105207000                       # number of overall MSHR miss cycles
system.l2.overall_mshr_miss_latency::cpu.data   3261673500                       # number of overall MSHR miss cycles
system.l2.overall_mshr_miss_latency::total   3366880500                       # number of overall MSHR miss cycles
system.l2.CleanEvict_mshr_miss_rate::writebacks          inf                       # mshr miss rate for CleanEvict accesses
system.l2.CleanEvict_mshr_miss_rate::total          inf                       # mshr miss rate for CleanEvict accesses
system.l2.UpgradeReq_mshr_miss_rate::cpu.data     0.903677                       # mshr miss rate for UpgradeReq accesses
system.l2.UpgradeReq_mshr_miss_rate::total     0.903677                       # mshr miss rate for UpgradeReq accesses
system.l2.ReadExReq_mshr_miss_rate::cpu.data     0.352379                       # mshr miss rate for ReadExReq accesses
system.l2.ReadExReq_mshr_miss_rate::total     0.352379                       # mshr miss rate for ReadExReq accesses
system.l2.ReadCleanReq_mshr_miss_rate::cpu.inst     0.007693                       # mshr miss rate for ReadCleanReq accesses
system.l2.ReadCleanReq_mshr_miss_rate::total     0.007693                       # mshr miss rate for ReadCleanReq accesses
system.l2.ReadSharedReq_mshr_miss_rate::cpu.data     0.524701                       # mshr miss rate for ReadSharedReq accesses
system.l2.ReadSharedReq_mshr_miss_rate::total     0.524701                       # mshr miss rate for ReadSharedReq accesses
system.l2.demand_mshr_miss_rate::cpu.inst     0.007693                       # mshr miss rate for demand accesses
system.l2.demand_mshr_miss_rate::cpu.data     0.506171                       # mshr miss rate for demand accesses
system.l2.demand_mshr_miss_rate::total       0.296914                       # mshr miss rate for demand accesses
system.l2.overall_mshr_miss_rate::cpu.inst     0.007693                       # mshr miss rate for overall accesses
system.l2.overall_mshr_miss_rate::cpu.data     0.506171                       # mshr miss rate for overall accesses
system.l2.overall_mshr_miss_rate::total      0.296914                       # mshr miss rate for overall accesses
system.l2.UpgradeReq_avg_mshr_miss_latency::cpu.data        21500                       # average UpgradeReq mshr miss latency
system.l2.UpgradeReq_avg_mshr_miss_latency::total        21500                       # average UpgradeReq mshr miss latency
system.l2.ReadExReq_avg_mshr_miss_latency::cpu.data 32684.510358                       # average ReadExReq mshr miss latency
system.l2.ReadExReq_avg_mshr_miss_latency::total 32684.510358                       # average ReadExReq mshr miss latency
system.l2.ReadCleanReq_avg_mshr_miss_latency::cpu.inst 67440.384615                       # average ReadCleanReq mshr miss latency
system.l2.ReadCleanReq_avg_mshr_miss_latency::total 67440.384615                       # average ReadCleanReq mshr miss latency
system.l2.ReadSharedReq_avg_mshr_miss_latency::cpu.data 22207.047888                       # average ReadSharedReq mshr miss latency
system.l2.ReadSharedReq_avg_mshr_miss_latency::total 22207.047888                       # average ReadSharedReq mshr miss latency
system.l2.demand_avg_mshr_miss_latency::cpu.inst 67440.384615                       # average overall mshr miss latency
system.l2.demand_avg_mshr_miss_latency::cpu.data 22991.389701                       # average overall mshr miss latency
system.l2.demand_avg_mshr_miss_latency::total 23474.850967                       # average overall mshr miss latency
system.l2.overall_avg_mshr_miss_latency::cpu.inst 67440.384615                       # average overall mshr miss latency
system.l2.overall_avg_mshr_miss_latency::cpu.data 22991.389701                       # average overall mshr miss latency
system.l2.overall_avg_mshr_miss_latency::total 23474.850967                       # average overall mshr miss latency
system.l2.replacements                         547383                       # number of replacements
system.l3.tags.pwrStateResidencyTicks::UNDEFINED  97099047000                       # Cumulative time (in ticks) in various power states
system.l3.tags.tagsinuse                  7832.680475                       # Cycle average of tags in use
system.l3.tags.total_refs                      400760                       # Total number of references to valid blocks.
system.l3.tags.sampled_refs                      8507                       # Sample count of references to valid blocks.
system.l3.tags.avg_refs                     47.109439                       # Average number of references to valid blocks.
system.l3.tags.warmup_cycle                    418000                       # Cycle when the warmup percentage was hit.
system.l3.tags.occ_blocks::cpu.inst        672.011594                       # Average occupied blocks per requestor
system.l3.tags.occ_blocks::cpu.data       7160.668881                       # Average occupied blocks per requestor
system.l3.tags.occ_percent::cpu.inst         0.041016                       # Average percentage of cache occupancy
system.l3.tags.occ_percent::cpu.data         0.437053                       # Average percentage of cache occupancy
system.l3.tags.occ_percent::total            0.478069                       # Average percentage of cache occupancy
system.l3.tags.occ_task_id_blocks::1024          8507                       # Occupied blocks per task id
system.l3.tags.age_task_id_blocks_1024::0           62                       # Occupied blocks per task id
system.l3.tags.age_task_id_blocks_1024::1            2                       # Occupied blocks per task id
system.l3.tags.age_task_id_blocks_1024::3            2                       # Occupied blocks per task id
system.l3.tags.age_task_id_blocks_1024::4         8441                       # Occupied blocks per task id
system.l3.tags.occ_task_id_percent::1024     0.519226                       # Percentage of cache occupancy per task id
system.l3.tags.tag_accesses                   6420667                       # Number of tag accesses
system.l3.tags.data_accesses                  6420667                       # Number of data accesses
system.l3.pwrStateResidencyTicks::UNDEFINED  97099047000                       # Cumulative time (in ticks) in various power states
system.l3.WritebackDirty_hits::writebacks       130307                       # number of WritebackDirty hits
system.l3.WritebackDirty_hits::total           130307                       # number of WritebackDirty hits
system.l3.UpgradeReq_hits::cpu.data             51224                       # number of UpgradeReq hits
system.l3.UpgradeReq_hits::total                51224                       # number of UpgradeReq hits
system.l3.ReadExReq_hits::cpu.data               3912                       # number of ReadExReq hits
system.l3.ReadExReq_hits::total                  3912                       # number of ReadExReq hits
system.l3.ReadSharedReq_hits::cpu.inst            828                       # number of ReadSharedReq hits
system.l3.ReadSharedReq_hits::cpu.data         130178                       # number of ReadSharedReq hits
system.l3.ReadSharedReq_hits::total            131006                       # number of ReadSharedReq hits
system.l3.demand_hits::cpu.inst                   828                       # number of demand (read+write) hits
system.l3.demand_hits::cpu.data                134090                       # number of demand (read+write) hits
system.l3.demand_hits::total                   134918                       # number of demand (read+write) hits
system.l3.overall_hits::cpu.inst                  828                       # number of overall hits
system.l3.overall_hits::cpu.data               134090                       # number of overall hits
system.l3.overall_hits::total                  134918                       # number of overall hits
system.l3.ReadExReq_misses::cpu.data             6708                       # number of ReadExReq misses
system.l3.ReadExReq_misses::total                6708                       # number of ReadExReq misses
system.l3.ReadSharedReq_misses::cpu.inst          732                       # number of ReadSharedReq misses
system.l3.ReadSharedReq_misses::cpu.data         1067                       # number of ReadSharedReq misses
system.l3.ReadSharedReq_misses::total            1799                       # number of ReadSharedReq misses
system.l3.demand_misses::cpu.inst                 732                       # number of demand (read+write) misses
system.l3.demand_misses::cpu.data                7775                       # number of demand (read+write) misses
system.l3.demand_misses::total                   8507                       # number of demand (read+write) misses
system.l3.overall_misses::cpu.inst                732                       # number of overall misses
system.l3.overall_misses::cpu.data               7775                       # number of overall misses
system.l3.overall_misses::total                  8507                       # number of overall misses
system.l3.ReadExReq_miss_latency::cpu.data    189213500                       # number of ReadExReq miss cycles
system.l3.ReadExReq_miss_latency::total     189213500                       # number of ReadExReq miss cycles
system.l3.ReadSharedReq_miss_latency::cpu.inst     79353000                       # number of ReadSharedReq miss cycles
system.l3.ReadSharedReq_miss_latency::cpu.data    104000000                       # number of ReadSharedReq miss cycles
system.l3.ReadSharedReq_miss_latency::total    183353000                       # number of ReadSharedReq miss cycles
system.l3.demand_miss_latency::cpu.inst      79353000                       # number of demand (read+write) miss cycles
system.l3.demand_miss_latency::cpu.data     293213500                       # number of demand (read+write) miss cycles
system.l3.demand_miss_latency::total        372566500                       # number of demand (read+write) miss cycles
system.l3.overall_miss_latency::cpu.inst     79353000                       # number of overall miss cycles
system.l3.overall_miss_latency::cpu.data    293213500                       # number of overall miss cycles
system.l3.overall_miss_latency::total       372566500                       # number of overall miss cycles
system.l3.WritebackDirty_accesses::writebacks       130307                       # number of WritebackDirty accesses(hits+misses)
system.l3.WritebackDirty_accesses::total       130307                       # number of WritebackDirty accesses(hits+misses)
system.l3.UpgradeReq_accesses::cpu.data         51224                       # number of UpgradeReq accesses(hits+misses)
system.l3.UpgradeReq_accesses::total            51224                       # number of UpgradeReq accesses(hits+misses)
system.l3.ReadExReq_accesses::cpu.data          10620                       # number of ReadExReq accesses(hits+misses)
system.l3.ReadExReq_accesses::total             10620                       # number of ReadExReq accesses(hits+misses)
system.l3.ReadSharedReq_accesses::cpu.inst         1560                       # number of ReadSharedReq accesses(hits+misses)
system.l3.ReadSharedReq_accesses::cpu.data       131245                       # number of ReadSharedReq accesses(hits+misses)
system.l3.ReadSharedReq_accesses::total        132805                       # number of ReadSharedReq accesses(hits+misses)
system.l3.demand_accesses::cpu.inst              1560                       # number of demand (read+write) accesses
system.l3.demand_accesses::cpu.data            141865                       # number of demand (read+write) accesses
system.l3.demand_accesses::total               143425                       # number of demand (read+write) accesses
system.l3.overall_accesses::cpu.inst             1560                       # number of overall (read+write) accesses
system.l3.overall_accesses::cpu.data           141865                       # number of overall (read+write) accesses
system.l3.overall_accesses::total              143425                       # number of overall (read+write) accesses
system.l3.ReadExReq_miss_rate::cpu.data      0.631638                       # miss rate for ReadExReq accesses
system.l3.ReadExReq_miss_rate::total         0.631638                       # miss rate for ReadExReq accesses
system.l3.ReadSharedReq_miss_rate::cpu.inst     0.469231                       # miss rate for ReadSharedReq accesses
system.l3.ReadSharedReq_miss_rate::cpu.data     0.008130                       # miss rate for ReadSharedReq accesses
system.l3.ReadSharedReq_miss_rate::total     0.013546                       # miss rate for ReadSharedReq accesses
system.l3.demand_miss_rate::cpu.inst         0.469231                       # miss rate for demand accesses
system.l3.demand_miss_rate::cpu.data         0.054806                       # miss rate for demand accesses
system.l3.demand_miss_rate::total            0.059313                       # miss rate for demand accesses
system.l3.overall_miss_rate::cpu.inst        0.469231                       # miss rate for overall accesses
system.l3.overall_miss_rate::cpu.data        0.054806                       # miss rate for overall accesses
system.l3.overall_miss_rate::total           0.059313                       # miss rate for overall accesses
system.l3.ReadExReq_avg_miss_latency::cpu.data 28207.140727                       # average ReadExReq miss latency
system.l3.ReadExReq_avg_miss_latency::total 28207.140727                       # average ReadExReq miss latency
system.l3.ReadSharedReq_avg_miss_latency::cpu.inst 108405.737705                       # average ReadSharedReq miss latency
system.l3.ReadSharedReq_avg_miss_latency::cpu.data 97469.540769                       # average ReadSharedReq miss latency
system.l3.ReadSharedReq_avg_miss_latency::total 101919.399666                       # average ReadSharedReq miss latency
system.l3.demand_avg_miss_latency::cpu.inst 108405.737705                       # average overall miss latency
system.l3.demand_avg_miss_latency::cpu.data 37712.347267                       # average overall miss latency
system.l3.demand_avg_miss_latency::total 43795.286235                       # average overall miss latency
system.l3.overall_avg_miss_latency::cpu.inst 108405.737705                       # average overall miss latency
system.l3.overall_avg_miss_latency::cpu.data 37712.347267                       # average overall miss latency
system.l3.overall_avg_miss_latency::total 43795.286235                       # average overall miss latency
system.l3.blocked_cycles::no_mshrs                  0                       # number of cycles access was blocked
system.l3.blocked_cycles::no_targets                0                       # number of cycles access was blocked
system.l3.blocked::no_mshrs                         0                       # number of cycles access was blocked
system.l3.blocked::no_targets                       0                       # number of cycles access was blocked
system.l3.avg_blocked_cycles::no_mshrs            nan                       # average number of cycles each access was blocked
system.l3.avg_blocked_cycles::no_targets          nan                       # average number of cycles each access was blocked
system.l3.ReadExReq_mshr_misses::cpu.data         6708                       # number of ReadExReq MSHR misses
system.l3.ReadExReq_mshr_misses::total           6708                       # number of ReadExReq MSHR misses
system.l3.ReadSharedReq_mshr_misses::cpu.inst          732                       # number of ReadSharedReq MSHR misses
system.l3.ReadSharedReq_mshr_misses::cpu.data         1067                       # number of ReadSharedReq MSHR misses
system.l3.ReadSharedReq_mshr_misses::total         1799                       # number of ReadSharedReq MSHR misses
system.l3.demand_mshr_misses::cpu.inst            732                       # number of demand (read+write) MSHR misses
system.l3.demand_mshr_misses::cpu.data           7775                       # number of demand (read+write) MSHR misses
system.l3.demand_mshr_misses::total              8507                       # number of demand (read+write) MSHR misses
system.l3.overall_mshr_misses::cpu.inst           732                       # number of overall MSHR misses
system.l3.overall_mshr_misses::cpu.data          7775                       # number of overall MSHR misses
system.l3.overall_mshr_misses::total             8507                       # number of overall MSHR misses
system.l3.ReadExReq_mshr_miss_latency::cpu.data    122133500                       # number of ReadExReq MSHR miss cycles
system.l3.ReadExReq_mshr_miss_latency::total    122133500                       # number of ReadExReq MSHR miss cycles
system.l3.ReadSharedReq_mshr_miss_latency::cpu.inst     72033000                       # number of ReadSharedReq MSHR miss cycles
system.l3.ReadSharedReq_mshr_miss_latency::cpu.data     93330000                       # number of ReadSharedReq MSHR miss cycles
system.l3.ReadSharedReq_mshr_miss_latency::total    165363000                       # number of ReadSharedReq MSHR miss cycles
system.l3.demand_mshr_miss_latency::cpu.inst     72033000                       # number of demand (read+write) MSHR miss cycles
system.l3.demand_mshr_miss_latency::cpu.data    215463500                       # number of demand (read+write) MSHR miss cycles
system.l3.demand_mshr_miss_latency::total    287496500                       # number of demand (read+write) MSHR miss cycles
system.l3.overall_mshr_miss_latency::cpu.inst     72033000                       # number of overall MSHR miss cycles
system.l3.overall_mshr_miss_latency::cpu.data    215463500                       # number of overall MSHR miss cycles
system.l3.overall_mshr_miss_latency::total    287496500                       # number of overall MSHR miss cycles
system.l3.ReadExReq_mshr_miss_rate::cpu.data     0.631638                       # mshr miss rate for ReadExReq accesses
system.l3.ReadExReq_mshr_miss_rate::total     0.631638                       # mshr miss rate for ReadExReq accesses
system.l3.ReadSharedReq_mshr_miss_rate::cpu.inst     0.469231                       # mshr miss rate for ReadSharedReq accesses
system.l3.ReadSharedReq_mshr_miss_rate::cpu.data     0.008130                       # mshr miss rate for ReadSharedReq accesses
system.l3.ReadSharedReq_mshr_miss_rate::total     0.013546                       # mshr miss rate for ReadSharedReq accesses
system.l3.demand_mshr_miss_rate::cpu.inst     0.469231                       # mshr miss rate for demand accesses
system.l3.demand_mshr_miss_rate::cpu.data     0.054806                       # mshr miss rate for demand accesses
system.l3.demand_mshr_miss_rate::total       0.059313                       # mshr miss rate for demand accesses
system.l3.overall_mshr_miss_rate::cpu.inst     0.469231                       # mshr miss rate for overall accesses
system.l3.overall_mshr_miss_rate::cpu.data     0.054806                       # mshr miss rate for overall accesses
system.l3.overall_mshr_miss_rate::total      0.059313                       # mshr miss rate for overall accesses
system.l3.ReadExReq_avg_mshr_miss_latency::cpu.data 18207.140727                       # average ReadExReq mshr miss latency
system.l3.ReadExReq_avg_mshr_miss_latency::total 18207.140727                       # average ReadExReq mshr miss latency
system.l3.ReadSharedReq_avg_mshr_miss_latency::cpu.inst 98405.737705                       # average ReadSharedReq mshr miss latency
system.l3.ReadSharedReq_avg_mshr_miss_latency::cpu.data 87469.540769                       # average ReadSharedReq mshr miss latency
system.l3.ReadSharedReq_avg_mshr_miss_latency::total 91919.399666                       # average ReadSharedReq mshr miss latency
system.l3.demand_avg_mshr_miss_latency::cpu.inst 98405.737705                       # average overall mshr miss latency
system.l3.demand_avg_mshr_miss_latency::cpu.data 27712.347267                       # average overall mshr miss latency
system.l3.demand_avg_mshr_miss_latency::total 33795.286235                       # average overall mshr miss latency
system.l3.overall_avg_mshr_miss_latency::cpu.inst 98405.737705                       # average overall mshr miss latency
system.l3.overall_avg_mshr_miss_latency::cpu.data 27712.347267                       # average overall mshr miss latency
system.l3.overall_avg_mshr_miss_latency::total 33795.286235                       # average overall mshr miss latency
system.l3.replacements                              0                       # number of replacements
system.membus.snoop_filter.tot_requests          8507                       # Total number of requests made to the snoop filter.
system.membus.snoop_filter.hit_single_requests            0                       # Number of requests hitting in the snoop filter with a single holder of the requested data.
system.membus.snoop_filter.hit_multi_requests            0                       # Number of requests hitting in the snoop filter with multiple (>1) holders of the requested data.
system.membus.snoop_filter.tot_snoops               0                       # Total number of snoops made to the snoop filter.
system.membus.snoop_filter.hit_single_snoops            0                       # Number of snoops hitting in the snoop filter with a single holder of the requested data.
system.membus.snoop_filter.hit_multi_snoops            0                       # Number of snoops hitting in the snoop filter with multiple (>1) holders of the requested data.
system.membus.pwrStateResidencyTicks::UNDEFINED  97099047000                       # Cumulative time (in ticks) in various power states
system.membus.trans_dist::ReadResp               1799                       # Transaction distribution
system.membus.trans_dist::ReadExReq              6708                       # Transaction distribution
system.membus.trans_dist::ReadExResp             6708                       # Transaction distribution
system.membus.trans_dist::ReadSharedReq          1799                       # Transaction distribution
system.membus.pkt_count_system.l3.mem_side::system.mem_ctrls.port        17014                       # Packet count per connected master and slave (bytes)
system.membus.pkt_count_system.l3.mem_side::total        17014                       # Packet count per connected master and slave (bytes)
system.membus.pkt_count::total                  17014                       # Packet count per connected master and slave (bytes)
system.membus.pkt_size_system.l3.mem_side::system.mem_ctrls.port       544448                       # Cumulative packet size per connected master and slave (bytes)
system.membus.pkt_size_system.l3.mem_side::total       544448                       # Cumulative packet size per connected master and slave (bytes)
system.membus.pkt_size::total                  544448                       # Cumulative packet size per connected master and slave (bytes)
system.membus.snoops                                0                       # Total snoops (count)
system.membus.snoopTraffic                          0                       # Total snoop traffic (bytes)
system.membus.snoop_fanout::samples              8507                       # Request fanout histogram
system.membus.snoop_fanout::mean                    0                       # Request fanout histogram
system.membus.snoop_fanout::stdev                   0                       # Request fanout histogram
system.membus.snoop_fanout::underflows              0      0.00%      0.00% # Request fanout histogram
system.membus.snoop_fanout::0                    8507    100.00%    100.00% # Request fanout histogram
system.membus.snoop_fanout::1                       0      0.00%    100.00% # Request fanout histogram
system.membus.snoop_fanout::overflows               0      0.00%    100.00% # Request fanout histogram
system.membus.snoop_fanout::min_value               0                       # Request fanout histogram
system.membus.snoop_fanout::max_value               0                       # Request fanout histogram
system.membus.snoop_fanout::total                8507                       # Request fanout histogram
system.membus.reqLayer2.occupancy             8596500                       # Layer occupancy (ticks)
system.membus.reqLayer2.utilization               0.0                       # Layer utilization (%)
system.membus.respLayer1.occupancy           42624500                       # Layer occupancy (ticks)
system.membus.respLayer1.utilization              0.0                       # Layer utilization (%)
system.tol2bus.snoop_filter.tot_requests      1022660                       # Total number of requests made to the snoop filter.
system.tol2bus.snoop_filter.hit_single_requests       539608                       # Number of requests hitting in the snoop filter with a single holder of the requested data.
system.tol2bus.snoop_filter.hit_multi_requests            0                       # Number of requests hitting in the snoop filter with multiple (>1) holders of the requested data.
system.tol2bus.snoop_filter.tot_snoops         478511                       # Total number of snoops made to the snoop filter.
system.tol2bus.snoop_filter.hit_single_snoops       478511                       # Number of snoops hitting in the snoop filter with a single holder of the requested data.
system.tol2bus.snoop_filter.hit_multi_snoops            0                       # Number of snoops hitting in the snoop filter with multiple (>1) holders of the requested data.
system.tol2bus.pwrStateResidencyTicks::UNDEFINED  97099047000                       # Cumulative time (in ticks) in various power states
system.tol2bus.trans_dist::ReadResp            452914                       # Transaction distribution
system.tol2bus.trans_dist::WritebackDirty       335616                       # Transaction distribution
system.tol2bus.trans_dist::WritebackClean       202717                       # Transaction distribution
system.tol2bus.trans_dist::CleanEvict          491974                       # Transaction distribution
system.tol2bus.trans_dist::UpgradeReq           56684                       # Transaction distribution
system.tol2bus.trans_dist::UpgradeResp          56684                       # Transaction distribution
system.tol2bus.trans_dist::ReadExReq            30138                       # Transaction distribution
system.tol2bus.trans_dist::ReadExResp           30138                       # Transaction distribution
system.tol2bus.trans_dist::ReadCleanReq        202781                       # Transaction distribution
system.tol2bus.trans_dist::ReadSharedReq       250133                       # Transaction distribution
system.tol2bus.pkt_count_system.cpu.icache.mem_side::system.l2.cpu_side       608279                       # Packet count per connected master and slave (bytes)
system.tol2bus.pkt_count_system.cpu.dcache.mem_side::system.l2.cpu_side       954117                       # Packet count per connected master and slave (bytes)
system.tol2bus.pkt_count::total               1562396                       # Packet count per connected master and slave (bytes)
system.tol2bus.pkt_size_system.cpu.icache.mem_side::system.l2.cpu_side     25951872                       # Cumulative packet size per connected master and slave (bytes)
system.tol2bus.pkt_size_system.cpu.dcache.mem_side::system.l2.cpu_side     31077120                       # Cumulative packet size per connected master and slave (bytes)
system.tol2bus.pkt_size::total               57028992                       # Cumulative packet size per connected master and slave (bytes)
system.tol2bus.snoops                          547383                       # Total snoops (count)
system.tol2bus.snoopTraffic                   8339648                       # Total snoop traffic (bytes)
system.tol2bus.snoop_fanout::samples          1087119                       # Request fanout histogram
system.tol2bus.snoop_fanout::mean            0.440164                       # Request fanout histogram
system.tol2bus.snoop_fanout::stdev           0.496407                       # Request fanout histogram
system.tol2bus.snoop_fanout::underflows             0      0.00%      0.00% # Request fanout histogram
system.tol2bus.snoop_fanout::0                 608608     55.98%     55.98% # Request fanout histogram
system.tol2bus.snoop_fanout::1                 478511     44.02%    100.00% # Request fanout histogram
system.tol2bus.snoop_fanout::2                      0      0.00%    100.00% # Request fanout histogram
system.tol2bus.snoop_fanout::3                      0      0.00%    100.00% # Request fanout histogram
system.tol2bus.snoop_fanout::4                      0      0.00%    100.00% # Request fanout histogram
system.tol2bus.snoop_fanout::overflows              0      0.00%    100.00% # Request fanout histogram
system.tol2bus.snoop_fanout::min_value              0                       # Request fanout histogram
system.tol2bus.snoop_fanout::max_value              1                       # Request fanout histogram
system.tol2bus.snoop_fanout::total            1087119                       # Request fanout histogram
system.tol2bus.reqLayer0.occupancy          919356000                       # Layer occupancy (ticks)
system.tol2bus.reqLayer0.utilization              0.9                       # Layer utilization (%)
system.tol2bus.respLayer0.occupancy         304171500                       # Layer occupancy (ticks)
system.tol2bus.respLayer0.utilization             0.3                       # Layer utilization (%)
system.tol2bus.respLayer1.occupancy         448748500                       # Layer occupancy (ticks)
system.tol2bus.respLayer1.utilization             0.5                       # Layer utilization (%)
system.tol3bus.snoop_filter.tot_requests       400760                       # Total number of requests made to the snoop filter.
system.tol3bus.snoop_filter.hit_single_requests       257335                       # Number of requests hitting in the snoop filter with a single holder of the requested data.
system.tol3bus.snoop_filter.hit_multi_requests            0                       # Number of requests hitting in the snoop filter with multiple (>1) holders of the requested data.
system.tol3bus.snoop_filter.tot_snoops              0                       # Total number of snoops made to the snoop filter.
system.tol3bus.snoop_filter.hit_single_snoops            0                       # Number of snoops hitting in the snoop filter with a single holder of the requested data.
system.tol3bus.snoop_filter.hit_multi_snoops            0                       # Number of snoops hitting in the snoop filter with multiple (>1) holders of the requested data.
system.tol3bus.pwrStateResidencyTicks::UNDEFINED  97099047000                       # Cumulative time (in ticks) in various power states
system.tol3bus.trans_dist::ReadResp            132805                       # Transaction distribution
system.tol3bus.trans_dist::WritebackDirty       130307                       # Transaction distribution
system.tol3bus.trans_dist::CleanEvict           75804                       # Transaction distribution
system.tol3bus.trans_dist::UpgradeReq           51224                       # Transaction distribution
system.tol3bus.trans_dist::UpgradeResp          51224                       # Transaction distribution
system.tol3bus.trans_dist::ReadExReq            10620                       # Transaction distribution
system.tol3bus.trans_dist::ReadExResp           10620                       # Transaction distribution
system.tol3bus.trans_dist::ReadSharedReq       132805                       # Transaction distribution
system.tol3bus.pkt_count_system.l2.mem_side::system.l3.cpu_side       595409                       # Packet count per connected master and slave (bytes)
system.tol3bus.pkt_size_system.l2.mem_side::system.l3.cpu_side     17518848                       # Cumulative packet size per connected master and slave (bytes)
system.tol3bus.snoops                               0                       # Total snoops (count)
system.tol3bus.snoopTraffic                         0                       # Total snoop traffic (bytes)
system.tol3bus.snoop_fanout::samples           194649                       # Request fanout histogram
system.tol3bus.snoop_fanout::mean                   0                       # Request fanout histogram
system.tol3bus.snoop_fanout::stdev                  0                       # Request fanout histogram
system.tol3bus.snoop_fanout::underflows             0      0.00%      0.00% # Request fanout histogram
system.tol3bus.snoop_fanout::0                 194649    100.00%    100.00% # Request fanout histogram
system.tol3bus.snoop_fanout::1                      0      0.00%    100.00% # Request fanout histogram
system.tol3bus.snoop_fanout::overflows              0      0.00%    100.00% # Request fanout histogram
system.tol3bus.snoop_fanout::min_value              0                       # Request fanout histogram
system.tol3bus.snoop_fanout::max_value              0                       # Request fanout histogram
system.tol3bus.snoop_fanout::total             194649                       # Request fanout histogram
system.tol3bus.reqLayer0.occupancy          330687000                       # Layer occupancy (ticks)
system.tol3bus.reqLayer0.utilization              0.3                       # Layer utilization (%)
system.tol3bus.respLayer0.occupancy         240749500                       # Layer occupancy (ticks)
system.tol3bus.respLayer0.utilization             0.2                       # Layer utilization (%)

---------- End Simulation Statistics   ----------
